
     RDKit          3D

 20 19  0  0  0  0  0  0  0  0999 V2000
   -2.2688   -0.5283   -0.0709 C   0  0  0  0  0  0  0  0  0  0  0  0
   -1.2345   -0.4801    1.0133 C   0  0  0  0  0  0  0  0  0  0  0  0
   -0.1712    0.5802    0.7385 C   0  0  0  0  0  0  0  0  0  0  0  0
    1.0092    0.5673    2.0692 Cl  0  0  0  0  0  0  0  0  0  0  0  0
    0.5466    0.2487   -0.5745 C   0  0  0  0  0  0  0  0  0  0  0  0
    1.5916    1.3418   -0.7896 C   0  0  0  0  0  0  0  0  0  0  0  0
    1.3269   -1.0374   -0.3655 C   0  0  0  0  0  0  0  0  0  0  0  0
   -3.2867   -0.7775    0.3353 H   0  0  0  0  0  0  0  0  0  0  0  0
   -2.3804    0.4692   -0.5500 H   0  0  0  0  0  0  0  0  0  0  0  0
   -2.0493   -1.3282   -0.8248 H   0  0  0  0  0  0  0  0  0  0  0  0
   -1.7552   -0.1302    1.9470 H   0  0  0  0  0  0  0  0  0  0  0  0
   -0.7771   -1.4468    1.2415 H   0  0  0  0  0  0  0  0  0  0  0  0
   -0.6369    1.5777    0.6995 H   0  0  0  0  0  0  0  0  0  0  0  0
   -0.1543    0.2064   -1.4047 H   0  0  0  0  0  0  0  0  0  0  0  0
    2.1417    1.0495   -1.7089 H   0  0  0  0  0  0  0  0  0  0  0  0
    2.3237    1.3270    0.0399 H   0  0  0  0  0  0  0  0  0  0  0  0
    1.0777    2.3007   -0.8642 H   0  0  0  0  0  0  0  0  0  0  0  0
    1.9239   -1.2543   -1.2812 H   0  0  0  0  0  0  0  0  0  0  0  0
    2.0745   -0.7987    0.4464 H   0  0  0  0  0  0  0  0  0  0  0  0
    0.6987   -1.8871   -0.0961 H   0  0  0  0  0  0  0  0  0  0  0  0
  1  2  1  0
  2  3  1  0
  3  4  1  0
  3  5  1  0
  5  6  1  0
  5  7  1  0
  1  8  1  0
  1  9  1  0
  1 10  1  0
  2 11  1  0
  2 12  1  0
  3 13  1  0
  5 14  1  0
  6 15  1  0
  6 16  1  0
  6 17  1  0
  7 18  1  0
  7 19  1  0
  7 20  1  0
A    1
-0.323466
A    2
-0.127539
A    3
0.098833
A    4
-0.242672
A    5
0.086345
A    6
-0.366297
A    7
-0.363190
A    8
0.108258
A    9
0.103425
A   10
0.099784
A   11
0.080901
A   12
0.080224
A   13
0.077516
A   14
0.056422
A   15
0.106806
A   16
0.103933
A   17
0.103853
A   18
0.110259
A   19
0.103648
A   20
0.102956
M  END
