
     RDKit          3D

 23 22  0  0  0  0  0  0  0  0999 V2000
   -1.2376    0.8573   -1.3337 C   0  0  0  0  0  0  0  0  0  0  0  0
   -0.8956   -0.0401   -0.1943 C   0  0  0  0  0  0  0  0  0  0  0  0
   -2.0362    0.0592    0.8142 C   0  0  0  0  0  0  0  0  0  0  0  0
   -0.8828   -1.5138   -0.6293 C   0  0  0  0  0  0  0  0  0  0  0  0
    0.4237    0.2163    0.4458 C   0  0  0  0  0  0  0  0  0  0  0  0
    1.6056    0.0772   -0.4484 C   0  0  0  0  0  0  0  0  0  0  0  0
    1.4496    1.2382   -1.7822 Cl  0  0  0  0  0  0  0  0  0  0  0  0
    2.8955    0.4199    0.3107 C   0  0  0  0  0  0  0  0  0  0  0  0
    3.0941   -0.6834    1.7013 Cl  0  0  0  0  0  0  0  0  0  0  0  0
   -0.9169    1.9074   -1.1802 H   0  0  0  0  0  0  0  0  0  0  0  0
   -2.3588    0.9439   -1.4730 H   0  0  0  0  0  0  0  0  0  0  0  0
   -0.8986    0.4297   -2.3122 H   0  0  0  0  0  0  0  0  0  0  0  0
   -1.7510   -0.4601    1.7599 H   0  0  0  0  0  0  0  0  0  0  0  0
   -2.3688    1.0874    0.9633 H   0  0  0  0  0  0  0  0  0  0  0  0
   -2.8815   -0.5277    0.3837 H   0  0  0  0  0  0  0  0  0  0  0  0
   -1.8708   -1.8120   -1.0148 H   0  0  0  0  0  0  0  0  0  0  0  0
   -0.0599   -1.7136   -1.3218 H   0  0  0  0  0  0  0  0  0  0  0  0
   -0.6870   -2.0839    0.3091 H   0  0  0  0  0  0  0  0  0  0  0  0
    0.5894   -0.4596    1.3194 H   0  0  0  0  0  0  0  0  0  0  0  0
    0.3940    1.2458    0.9102 H   0  0  0  0  0  0  0  0  0  0  0  0
    1.7654   -0.9565   -0.8154 H   0  0  0  0  0  0  0  0  0  0  0  0
    2.8690    1.4602    0.6786 H   0  0  0  0  0  0  0  0  0  0  0  0
    3.7589    0.3080   -0.3600 H   0  0  0  0  0  0  0  0  0  0  0  0
  1  2  1  0
  2  3  1  0
  2  4  1  0
  2  5  1  0
  5  6  1  0
  6  7  1  0
  6  8  1  0
  8  9  1  0
  1 10  1  0
  1 11  1  0
  1 12  1  0
  3 13  1  0
  3 14  1  0
  3 15  1  0
  4 16  1  0
  4 17  1  0
  4 18  1  0
  5 19  1  0
  5 20  1  0
  6 21  1  0
  8 22  1  0
  8 23  1  0
A    1
-0.386356
A    2
0.269628
A    3
-0.380115
A    4
-0.386932
A    5
-0.236128
A    6
0.129911
A    7
-0.218195
A    8
-0.100933
A    9
-0.176752
A   10
0.104511
A   11
0.107457
A   12
0.103927
A   13
0.105968
A   14
0.106645
A   15
0.105814
A   16
0.108993
A   17
0.103907
A   18
0.102922
A   19
0.087008
A   20
0.092914
A   21
0.095934
A   22
0.134789
A   23
0.125084
M  END
