
     RDKit          3D

 26 25  0  0  0  0  0  0  0  0999 V2000
   -2.7520    0.5169    0.3990 C   0  0  0  0  0  0  0  0  0  0  0  0
   -2.4163   -0.9021    0.8250 C   0  0  0  0  0  0  0  0  0  0  0  0
   -0.8768   -0.9745    0.8286 C   0  0  0  0  0  0  0  0  0  0  0  0
   -0.4206   -0.6761   -0.5399 C   0  0  0  0  0  0  0  0  0  0  0  0
    1.0144   -0.6782   -0.8242 C   0  0  0  0  0  0  0  0  0  0  0  0
    1.8989    0.2547   -0.0984 C   0  0  0  0  0  0  0  0  0  0  0  0
    1.5902    1.7113   -0.2741 C   0  0  0  0  0  0  0  0  0  0  0  0
    2.0108   -0.0311    1.3841 C   0  0  0  0  0  0  0  0  0  0  0  0
    3.5631    0.0193   -0.7668 Cl  0  0  0  0  0  0  0  0  0  0  0  0
   -3.6663    0.8944    0.9227 H   0  0  0  0  0  0  0  0  0  0  0  0
   -2.8920    0.6058   -0.6956 H   0  0  0  0  0  0  0  0  0  0  0  0
   -1.9202    1.2140    0.6705 H   0  0  0  0  0  0  0  0  0  0  0  0
   -2.8210   -1.5980    0.0711 H   0  0  0  0  0  0  0  0  0  0  0  0
   -2.8344   -1.0974    1.8112 H   0  0  0  0  0  0  0  0  0  0  0  0
   -0.6028   -0.1015    1.4931 H   0  0  0  0  0  0  0  0  0  0  0  0
   -0.5834   -1.9334    1.2461 H   0  0  0  0  0  0  0  0  0  0  0  0
   -0.8668    0.3226   -0.8328 H   0  0  0  0  0  0  0  0  0  0  0  0
   -0.9150   -1.3939   -1.2420 H   0  0  0  0  0  0  0  0  0  0  0  0
    1.4151   -1.7180   -0.6422 H   0  0  0  0  0  0  0  0  0  0  0  0
    1.1573   -0.5176   -1.9165 H   0  0  0  0  0  0  0  0  0  0  0  0
    1.1807    1.9759   -1.2550 H   0  0  0  0  0  0  0  0  0  0  0  0
    0.9506    2.0921    0.5765 H   0  0  0  0  0  0  0  0  0  0  0  0
    2.5407    2.2859   -0.1637 H   0  0  0  0  0  0  0  0  0  0  0  0
    3.0829   -0.0514    1.7351 H   0  0  0  0  0  0  0  0  0  0  0  0
    1.5583    0.8015    1.9996 H   0  0  0  0  0  0  0  0  0  0  0  0
    1.6047   -1.0213    1.6641 H   0  0  0  0  0  0  0  0  0  0  0  0
  1  2  1  0
  2  3  1  0
  3  4  1  0
  4  5  1  0
  5  6  1  0
  6  7  1  0
  6  8  1  0
  6  9  1  0
  1 10  1  0
  1 11  1  0
  1 12  1  0
  2 13  1  0
  2 14  1  0
  3 15  1  0
  3 16  1  0
  4 17  1  0
  4 18  1  0
  5 19  1  0
  5 20  1  0
  7 21  1  0
  7 22  1  0
  7 23  1  0
  8 24  1  0
  8 25  1  0
  8 26  1  0
A    1
-0.327378
A    2
-0.073127
A    3
-0.131983
A    4
-0.111563
A    5
-0.208462
A    6
0.352432
A    7
-0.409346
A    8
-0.408946
A    9
-0.286014
A   10
0.098083
A   11
0.094680
A   12
0.097658
A   13
0.061138
A   14
0.058112
A   15
0.067163
A   16
0.066479
A   17
0.065049
A   18
0.071776
A   19
0.088799
A   20
0.085846
A   21
0.126591
A   22
0.121440
A   23
0.127122
A   24
0.127858
A   25
0.122096
A   26
0.124498
M  END
