
     RDKit          3D

 20 19  0  0  0  0  0  0  0  0999 V2000
   -0.3788   -1.4141   -0.5178 C   0  0  0  0  0  0  0  0  0  0  0  0
   -0.4305   -0.0071    0.0212 C   0  0  0  0  0  0  0  0  0  0  0  0
   -0.5610    0.0046    1.5342 C   0  0  0  0  0  0  0  0  0  0  0  0
   -1.7122    0.6165   -0.5024 C   0  0  0  0  0  0  0  0  0  0  0  0
    0.7591    0.7804   -0.4453 C   0  0  0  0  0  0  0  0  0  0  0  0
    2.0637    0.2307   -0.0153 C   0  0  0  0  0  0  0  0  0  0  0  0
    2.3974   -1.4042   -0.5915 Cl  0  0  0  0  0  0  0  0  0  0  0  0
    3.3457    1.2959   -0.7020 Cl  0  0  0  0  0  0  0  0  0  0  0  0
    0.0705   -1.3837   -1.5264 H   0  0  0  0  0  0  0  0  0  0  0  0
    0.1236   -2.0906    0.1936 H   0  0  0  0  0  0  0  0  0  0  0  0
   -1.4448   -1.7615   -0.7048 H   0  0  0  0  0  0  0  0  0  0  0  0
   -1.3775    0.6622    1.8875 H   0  0  0  0  0  0  0  0  0  0  0  0
    0.3810    0.3965    1.9615 H   0  0  0  0  0  0  0  0  0  0  0  0
   -0.6812   -1.0229    1.9424 H   0  0  0  0  0  0  0  0  0  0  0  0
   -2.5037   -0.1520   -0.4176 H   0  0  0  0  0  0  0  0  0  0  0  0
   -2.0248    1.4876    0.0825 H   0  0  0  0  0  0  0  0  0  0  0  0
   -1.5663    0.8547   -1.5870 H   0  0  0  0  0  0  0  0  0  0  0  0
    0.6368    1.8442   -0.1316 H   0  0  0  0  0  0  0  0  0  0  0  0
    0.6826    0.7917   -1.5750 H   0  0  0  0  0  0  0  0  0  0  0  0
    2.2205    0.2711    1.0940 H   0  0  0  0  0  0  0  0  0  0  0  0
  1  2  1  0
  2  3  1  0
  2  4  1  0
  2  5  1  0
  5  6  1  0
  6  7  1  0
  6  8  1  0
  1  9  1  0
  1 10  1  0
  1 11  1  0
  3 12  1  0
  3 13  1  0
  3 14  1  0
  4 15  1  0
  4 16  1  0
  4 17  1  0
  5 18  1  0
  5 19  1  0
  6 20  1  0
A    1
-0.394119
A    2
0.273878
A    3
-0.385642
A    4
-0.380789
A    5
-0.255541
A    6
0.203200
A    7
-0.177665
A    8
-0.196960
A    9
0.107364
A   10
0.106219
A   11
0.108088
A   12
0.107283
A   13
0.112734
A   14
0.109385
A   15
0.107127
A   16
0.107267
A   17
0.109678
A   18
0.103262
A   19
0.105306
A   20
0.129924
M  END
