
     RDKit          3D

 23 22  0  0  0  0  0  0  0  0999 V2000
   -5.0740   -0.7615   -0.0187 Cl  0  0  0  0  0  0  0  0  0  0  0  0
   -3.7255    0.2426   -0.6062 C   0  0  0  0  0  0  0  0  0  0  0  0
   -2.4487   -0.3710   -0.0915 C   0  0  0  0  0  0  0  0  0  0  0  0
   -1.2262    0.4011   -0.5295 C   0  0  0  0  0  0  0  0  0  0  0  0
   -0.0205   -0.3385    0.0663 C   0  0  0  0  0  0  0  0  0  0  0  0
    1.2663    0.3593   -0.3161 C   0  0  0  0  0  0  0  0  0  0  0  0
    2.4046   -0.3959    0.2850 C   0  0  0  0  0  0  0  0  0  0  0  0
    3.7488    0.2168   -0.0349 C   0  0  0  0  0  0  0  0  0  0  0  0
    4.9818   -0.8175    0.7642 Cl  0  0  0  0  0  0  0  0  0  0  0  0
   -3.7884    0.2661   -1.6991 H   0  0  0  0  0  0  0  0  0  0  0  0
   -3.8463    1.2375   -0.1624 H   0  0  0  0  0  0  0  0  0  0  0  0
   -2.3186   -1.4165   -0.3988 H   0  0  0  0  0  0  0  0  0  0  0  0
   -2.4862   -0.3113    1.0195 H   0  0  0  0  0  0  0  0  0  0  0  0
   -1.1990    1.4286   -0.1163 H   0  0  0  0  0  0  0  0  0  0  0  0
   -1.1687    0.4219   -1.6294 H   0  0  0  0  0  0  0  0  0  0  0  0
   -0.0688   -1.3702   -0.3371 H   0  0  0  0  0  0  0  0  0  0  0  0
   -0.1796   -0.3522    1.1454 H   0  0  0  0  0  0  0  0  0  0  0  0
    1.2400    1.3659    0.1718 H   0  0  0  0  0  0  0  0  0  0  0  0
    1.3488    0.5313   -1.3882 H   0  0  0  0  0  0  0  0  0  0  0  0
    2.2938   -0.3295    1.3995 H   0  0  0  0  0  0  0  0  0  0  0  0
    2.4505   -1.4544   -0.0259 H   0  0  0  0  0  0  0  0  0  0  0  0
    3.8387    1.2565    0.3540 H   0  0  0  0  0  0  0  0  0  0  0  0
    3.9774    0.1911   -1.1204 H   0  0  0  0  0  0  0  0  0  0  0  0
  1  2  1  0
  2  3  1  0
  3  4  1  0
  4  5  1  0
  5  6  1  0
  6  7  1  0
  7  8  1  0
  8  9  1  0
  2 10  1  0
  2 11  1  0
  3 12  1  0
  3 13  1  0
  4 14  1  0
  4 15  1  0
  5 16  1  0
  5 17  1  0
  6 18  1  0
  6 19  1  0
  7 20  1  0
  7 21  1  0
  8 22  1  0
  8 23  1  0
A    1
-0.231864
A    2
-0.022423
A    3
-0.141048
A    4
-0.124864
A    5
-0.120239
A    6
-0.124636
A    7
-0.140395
A    8
-0.023792
A    9
-0.231260
A   10
0.102437
A   11
0.102234
A   12
0.081573
A   13
0.081353
A   14
0.070352
A   15
0.070438
A   16
0.071570
A   17
0.072003
A   18
0.070864
A   19
0.070305
A   20
0.081270
A   21
0.081370
A   22
0.102859
A   23
0.101894
M  END
