
     RDKit          3D

 20 19  0  0  0  0  0  0  0  0999 V2000
    1.9506    0.4183    0.5792 C   0  0  0  0  0  0  0  0  0  0  0  0
    1.3440   -0.7990   -0.0093 C   0  0  0  0  0  0  0  0  0  0  0  0
    0.2449   -0.6156   -0.9849 C   0  0  0  0  0  0  0  0  0  0  0  0
   -0.9798    0.0732   -0.5219 C   0  0  0  0  0  0  0  0  0  0  0  0
   -0.8279    1.4700   -0.0325 C   0  0  0  0  0  0  0  0  0  0  0  0
   -1.7292   -0.7000    0.5407 C   0  0  0  0  0  0  0  0  0  0  0  0
   -2.2530   -2.2879   -0.0105 Cl  0  0  0  0  0  0  0  0  0  0  0  0
    1.6023    0.4917    1.6519 H   0  0  0  0  0  0  0  0  0  0  0  0
    1.8245    1.3517    0.0405 H   0  0  0  0  0  0  0  0  0  0  0  0
    3.0746    0.3038    0.7084 H   0  0  0  0  0  0  0  0  0  0  0  0
    1.0529   -1.5386    0.7959 H   0  0  0  0  0  0  0  0  0  0  0  0
    2.1767   -1.3449   -0.5456 H   0  0  0  0  0  0  0  0  0  0  0  0
    0.5972   -0.1269   -1.9237 H   0  0  0  0  0  0  0  0  0  0  0  0
   -0.0949   -1.6329   -1.3497 H   0  0  0  0  0  0  0  0  0  0  0  0
   -1.6822    0.1109   -1.4088 H   0  0  0  0  0  0  0  0  0  0  0  0
   -1.8631    1.9298    0.0582 H   0  0  0  0  0  0  0  0  0  0  0  0
   -0.3726    1.6069    0.9416 H   0  0  0  0  0  0  0  0  0  0  0  0
   -0.2700    2.1186   -0.7721 H   0  0  0  0  0  0  0  0  0  0  0  0
   -1.1375   -0.7271    1.4742 H   0  0  0  0  0  0  0  0  0  0  0  0
   -2.6578   -0.1020    0.7684 H   0  0  0  0  0  0  0  0  0  0  0  0
  1  2  1  0
  2  3  1  0
  3  4  1  0
  4  5  1  0
  4  6  1  0
  6  7  1  0
  1  8  1  0
  1  9  1  0
  1 10  1  0
  2 11  1  0
  2 12  1  0
  3 13  1  0
  3 14  1  0
  4 15  1  0
  5 16  1  0
  5 17  1  0
  5 18  1  0
  6 19  1  0
  6 20  1  0
A    1
-0.324327
A    2
-0.070504
A    3
-0.164293
A    4
0.073654
A    5
-0.359119
A    6
-0.065068
A    7
-0.215892
A    8
0.093893
A    9
0.098347
A   10
0.095730
A   11
0.058868
A   12
0.064804
A   13
0.074067
A   14
0.059742
A   15
0.052019
A   16
0.102742
A   17
0.104459
A   18
0.109869
A   19
0.105732
A   20
0.105277
M  END
