
     RDKit          3D

 23 22  0  0  0  0  0  0  0  0999 V2000
   -0.6860   -0.6901    1.3230 C   0  0  0  0  0  0  0  0  0  0  0  0
   -0.6151    0.0638    0.0276 C   0  0  0  0  0  0  0  0  0  0  0  0
   -1.1828    1.4488    0.2376 C   0  0  0  0  0  0  0  0  0  0  0  0
   -1.4763   -0.7085   -0.9740 C   0  0  0  0  0  0  0  0  0  0  0  0
    0.7944    0.1898   -0.4962 C   0  0  0  0  0  0  0  0  0  0  0  0
    1.6592    0.9215    0.4994 C   0  0  0  0  0  0  0  0  0  0  0  0
    1.4352   -1.1613   -0.7305 C   0  0  0  0  0  0  0  0  0  0  0  0
    0.8459    1.1095   -2.0157 Cl  0  0  0  0  0  0  0  0  0  0  0  0
   -1.7750   -0.9591    1.4640 H   0  0  0  0  0  0  0  0  0  0  0  0
   -0.1437   -1.6376    1.3310 H   0  0  0  0  0  0  0  0  0  0  0  0
   -0.4227   -0.0526    2.2105 H   0  0  0  0  0  0  0  0  0  0  0  0
   -1.8198    1.6871   -0.6452 H   0  0  0  0  0  0  0  0  0  0  0  0
   -1.8039    1.4619    1.1705 H   0  0  0  0  0  0  0  0  0  0  0  0
   -0.3524    2.1708    0.2857 H   0  0  0  0  0  0  0  0  0  0  0  0
   -1.1884   -1.7750   -0.8844 H   0  0  0  0  0  0  0  0  0  0  0  0
   -2.5342   -0.6248   -0.6962 H   0  0  0  0  0  0  0  0  0  0  0  0
   -1.3088   -0.3507   -2.0036 H   0  0  0  0  0  0  0  0  0  0  0  0
    1.3460    0.7279    1.5593 H   0  0  0  0  0  0  0  0  0  0  0  0
    1.6780    2.0080    0.2751 H   0  0  0  0  0  0  0  0  0  0  0  0
    2.6818    0.5597    0.4076 H   0  0  0  0  0  0  0  0  0  0  0  0
    2.4568   -0.9425   -1.1482 H   0  0  0  0  0  0  0  0  0  0  0  0
    0.8303   -1.7581   -1.4412 H   0  0  0  0  0  0  0  0  0  0  0  0
    1.5816   -1.6885    0.2440 H   0  0  0  0  0  0  0  0  0  0  0  0
  1  2  1  0
  2  3  1  0
  2  4  1  0
  2  5  1  0
  5  6  1  0
  5  7  1  0
  5  8  1  0
  1  9  1  0
  1 10  1  0
  1 11  1  0
  3 12  1  0
  3 13  1  0
  3 14  1  0
  4 15  1  0
  4 16  1  0
  4 17  1  0
  6 18  1  0
  6 19  1  0
  6 20  1  0
  7 21  1  0
  7 22  1  0
  7 23  1  0
A    1
-0.380515
A    2
0.200592
A    3
-0.387778
A    4
-0.381226
A    5
0.289295
A    6
-0.406825
A    7
-0.410589
A    8
-0.253051
A    9
0.115387
A   10
0.107865
A   11
0.110103
A   12
0.106385
A   13
0.112681
A   14
0.108270
A   15
0.107349
A   16
0.112406
A   17
0.104702
A   18
0.123270
A   19
0.122585
A   20
0.125194
A   21
0.126703
A   22
0.124626
A   23
0.122572
M  END
