
     RDKit          3D

 11 10  0  0  0  0  0  0  0  0999 V2000
    2.7505    0.0387   -0.4587 Cl  0  0  0  0  0  0  0  0  0  0  0  0
    1.2161   -0.0105    0.4544 C   0  0  0  0  0  0  0  0  0  0  0  0
    0.0952   -0.0582   -0.5555 C   0  0  0  0  0  0  0  0  0  0  0  0
   -1.2652   -0.1031    0.0980 C   0  0  0  0  0  0  0  0  0  0  0  0
   -1.5569    1.3213    1.1170 Cl  0  0  0  0  0  0  0  0  0  0  0  0
   -2.5207   -0.1993   -1.1455 Cl  0  0  0  0  0  0  0  0  0  0  0  0
    1.1356    0.9917    0.9559 H   0  0  0  0  0  0  0  0  0  0  0  0
    1.1994   -0.8372    1.1643 H   0  0  0  0  0  0  0  0  0  0  0  0
    0.2094   -0.9777   -1.1575 H   0  0  0  0  0  0  0  0  0  0  0  0
    0.1242    0.8263   -1.2235 H   0  0  0  0  0  0  0  0  0  0  0  0
   -1.3875   -0.9920    0.7511 H   0  0  0  0  0  0  0  0  0  0  0  0
  1  2  1  0
  2  3  1  0
  3  4  1  0
  4  5  1  0
  4  6  1  0
  2  7  1  0
  2  8  1  0
  3  9  1  0
  3 10  1  0
  4 11  1  0
A    1
-0.199792
A    2
-0.027510
A    3
-0.203888
A    4
0.185841
A    5
-0.175065
A    6
-0.180468
A    7
0.107119
A    8
0.119489
A    9
0.113621
A   10
0.111252
A   11
0.149403
M  END
