
     RDKit          3D

 20 19  0  0  0  0  0  0  0  0999 V2000
    1.8814   -0.2774   -1.0442 C   0  0  0  0  0  0  0  0  0  0  0  0
    0.7900   -0.8210   -0.2352 C   0  0  0  0  0  0  0  0  0  0  0  0
   -0.2847    0.0668    0.2538 C   0  0  0  0  0  0  0  0  0  0  0  0
   -1.2644   -0.7789    1.0574 C   0  0  0  0  0  0  0  0  0  0  0  0
    0.0629    1.2429    1.0590 C   0  0  0  0  0  0  0  0  0  0  0  0
   -1.0989    0.5686   -0.9558 C   0  0  0  0  0  0  0  0  0  0  0  0
   -1.8169   -0.7843   -1.8329 Cl  0  0  0  0  0  0  0  0  0  0  0  0
    2.1730    0.7678   -0.8773 H   0  0  0  0  0  0  0  0  0  0  0  0
    1.7018   -0.3717   -2.1521 H   0  0  0  0  0  0  0  0  0  0  0  0
    2.8260   -0.8607   -0.8823 H   0  0  0  0  0  0  0  0  0  0  0  0
    0.3124   -1.6450   -0.8141 H   0  0  0  0  0  0  0  0  0  0  0  0
    1.2475   -1.3647    0.6478 H   0  0  0  0  0  0  0  0  0  0  0  0
   -1.2013   -0.5160    2.1536 H   0  0  0  0  0  0  0  0  0  0  0  0
   -2.3008   -0.6314    0.7686 H   0  0  0  0  0  0  0  0  0  0  0  0
   -1.0276   -1.8597    0.9969 H   0  0  0  0  0  0  0  0  0  0  0  0
   -0.4867    2.1804    0.7453 H   0  0  0  0  0  0  0  0  0  0  0  0
    1.1210    1.5390    1.0832 H   0  0  0  0  0  0  0  0  0  0  0  0
   -0.2243    1.1338    2.1404 H   0  0  0  0  0  0  0  0  0  0  0  0
   -0.4998    1.2224   -1.5931 H   0  0  0  0  0  0  0  0  0  0  0  0
   -1.9105    1.1890   -0.5193 H   0  0  0  0  0  0  0  0  0  0  0  0
  1  2  1  0
  2  3  1  0
  3  4  1  0
  3  5  1  0
  3  6  1  0
  6  7  1  0
  1  8  1  0
  1  9  1  0
  1 10  1  0
  2 11  1  0
  2 12  1  0
  4 13  1  0
  4 14  1  0
  4 15  1  0
  5 16  1  0
  5 17  1  0
  5 18  1  0
  6 19  1  0
  6 20  1  0
A    1
-0.324997
A    2
-0.132878
A    3
0.212961
A    4
-0.389937
A    5
-0.380716
A    6
-0.085066
A    7
-0.200835
A    8
0.097883
A    9
0.096455
A   10
0.104565
A   11
0.066638
A   12
0.072912
A   13
0.111894
A   14
0.107155
A   15
0.102222
A   16
0.110269
A   17
0.106164
A   18
0.113457
A   19
0.102791
A   20
0.109064
M  END
