
     RDKit          3D

 20 19  0  0  0  0  0  0  0  0999 V2000
   -2.9051   -0.1015    0.0201 C   0  0  0  0  0  0  0  0  0  0  0  0
   -1.4437   -0.5616    0.1127 C   0  0  0  0  0  0  0  0  0  0  0  0
   -0.6953    0.5374    0.7855 C   0  0  0  0  0  0  0  0  0  0  0  0
    0.7649    0.2741    0.9703 C   0  0  0  0  0  0  0  0  0  0  0  0
    1.4137    0.0643   -0.3774 C   0  0  0  0  0  0  0  0  0  0  0  0
    1.1546    1.5627   -1.3176 Cl  0  0  0  0  0  0  0  0  0  0  0  0
    2.9099   -0.2004   -0.2048 C   0  0  0  0  0  0  0  0  0  0  0  0
    3.1041   -1.6414    0.7779 Cl  0  0  0  0  0  0  0  0  0  0  0  0
   -3.2668    0.1599    1.0248 H   0  0  0  0  0  0  0  0  0  0  0  0
   -3.4620   -0.9525   -0.3887 H   0  0  0  0  0  0  0  0  0  0  0  0
   -2.9730    0.8049   -0.6268 H   0  0  0  0  0  0  0  0  0  0  0  0
   -1.4567   -1.5068    0.6946 H   0  0  0  0  0  0  0  0  0  0  0  0
   -1.0680   -0.7465   -0.8944 H   0  0  0  0  0  0  0  0  0  0  0  0
   -0.8181    1.4576    0.1835 H   0  0  0  0  0  0  0  0  0  0  0  0
   -1.1469    0.6879    1.8014 H   0  0  0  0  0  0  0  0  0  0  0  0
    0.9513   -0.5867    1.6510 H   0  0  0  0  0  0  0  0  0  0  0  0
    1.2099    1.2214    1.3812 H   0  0  0  0  0  0  0  0  0  0  0  0
    0.9709   -0.7608   -0.9543 H   0  0  0  0  0  0  0  0  0  0  0  0
    3.3290   -0.4023   -1.2186 H   0  0  0  0  0  0  0  0  0  0  0  0
    3.4272    0.6903    0.1941 H   0  0  0  0  0  0  0  0  0  0  0  0
  1  2  1  0
  2  3  1  0
  3  4  1  0
  4  5  1  0
  5  6  1  0
  5  7  1  0
  7  8  1  0
  1  9  1  0
  1 10  1  0
  1 11  1  0
  2 12  1  0
  2 13  1  0
  3 14  1  0
  3 15  1  0
  4 16  1  0
  4 17  1  0
  5 18  1  0
  7 19  1  0
  7 20  1  0
A    1
-0.325032
A    2
-0.074402
A    3
-0.125215
A    4
-0.180037
A    5
0.117030
A    6
-0.209403
A    7
-0.097134
A    8
-0.182760
A    9
0.097001
A   10
0.095322
A   11
0.098446
A   12
0.064245
A   13
0.066259
A   14
0.062096
A   15
0.073950
A   16
0.084917
A   17
0.085288
A   18
0.097256
A   19
0.124061
A   20
0.128115
M  END
