
     RDKit          3D

 14 13  0  0  0  0  0  0  0  0999 V2000
    3.1417    1.1723    0.2127 Cl  0  0  0  0  0  0  0  0  0  0  0  0
    1.8751   -0.0509    0.0114 C   0  0  0  0  0  0  0  0  0  0  0  0
    0.4913    0.5565    0.2396 C   0  0  0  0  0  0  0  0  0  0  0  0
   -0.5519   -0.5233    0.0570 C   0  0  0  0  0  0  0  0  0  0  0  0
   -0.4925   -1.2152   -1.5792 Cl  0  0  0  0  0  0  0  0  0  0  0  0
   -1.9354   -0.0544    0.3255 C   0  0  0  0  0  0  0  0  0  0  0  0
   -2.1778    0.5473    1.9686 Cl  0  0  0  0  0  0  0  0  0  0  0  0
    1.9219   -0.4428   -1.0411 H   0  0  0  0  0  0  0  0  0  0  0  0
    2.0496   -0.8980    0.7056 H   0  0  0  0  0  0  0  0  0  0  0  0
    0.4639    0.9390    1.2794 H   0  0  0  0  0  0  0  0  0  0  0  0
    0.3636    1.4098   -0.4428 H   0  0  0  0  0  0  0  0  0  0  0  0
   -0.2958   -1.3336    0.7720 H   0  0  0  0  0  0  0  0  0  0  0  0
   -2.6411   -0.8914    0.1566 H   0  0  0  0  0  0  0  0  0  0  0  0
   -2.2128    0.7846   -0.3682 H   0  0  0  0  0  0  0  0  0  0  0  0
  1  2  1  0
  2  3  1  0
  3  4  1  0
  4  5  1  0
  4  6  1  0
  6  7  1  0
  2  8  1  0
  2  9  1  0
  3 10  1  0
  3 11  1  0
  4 12  1  0
  6 13  1  0
  6 14  1  0
A    1
-0.206857
A    2
-0.027229
A    3
-0.194866
A    4
0.118961
A    5
-0.206608
A    6
-0.095241
A    7
-0.178816
A    8
0.101528
A    9
0.115396
A   10
0.095817
A   11
0.100775
A   12
0.117147
A   13
0.126810
A   14
0.133184
M  END
