
     RDKit          3D

 14 13  0  0  0  0  0  0  0  0999 V2000
    1.5349    0.1860   -0.2662 C   0  0  0  0  0  0  0  0  0  0  0  0
    0.5330   -0.6977    0.3828 C   0  0  0  0  0  0  0  0  0  0  0  0
    1.1812   -1.2721    1.9245 Cl  0  0  0  0  0  0  0  0  0  0  0  0
   -0.8136   -0.0392    0.5985 C   0  0  0  0  0  0  0  0  0  0  0  0
   -1.3893    0.3852   -0.7180 C   0  0  0  0  0  0  0  0  0  0  0  0
   -0.7148    1.3047    1.7496 Cl  0  0  0  0  0  0  0  0  0  0  0  0
    2.0440   -0.3834   -1.0872 H   0  0  0  0  0  0  0  0  0  0  0  0
    1.1526    1.1325   -0.6584 H   0  0  0  0  0  0  0  0  0  0  0  0
    2.3598    0.4487    0.4451 H   0  0  0  0  0  0  0  0  0  0  0  0
    0.3234   -1.6146   -0.2370 H   0  0  0  0  0  0  0  0  0  0  0  0
   -1.4635   -0.8143    1.0598 H   0  0  0  0  0  0  0  0  0  0  0  0
   -0.6651    0.6628   -1.4734 H   0  0  0  0  0  0  0  0  0  0  0  0
   -2.1192    1.1982   -0.6032 H   0  0  0  0  0  0  0  0  0  0  0  0
   -1.9632   -0.4966   -1.1172 H   0  0  0  0  0  0  0  0  0  0  0  0
  1  2  1  0
  2  3  1  0
  2  4  1  0
  4  5  1  0
  4  6  1  0
  1  7  1  0
  1  8  1  0
  1  9  1  0
  2 10  1  0
  4 11  1  0
  5 12  1  0
  5 13  1  0
  5 14  1  0
A    1
-0.375778
A    2
0.134321
A    3
-0.238670
A    4
0.125904
A    5
-0.374862
A    6
-0.216150
A    7
0.125073
A    8
0.121165
A    9
0.119307
A   10
0.108331
A   11
0.102078
A   12
0.120575
A   13
0.126393
A   14
0.122314
M  END
