
     RDKit          3D

 32 31  0  0  0  0  0  0  0  0999 V2000
   -2.5134    1.7110    1.0772 C   0  0  0  0  0  0  0  0  0  0  0  0
   -3.1757    0.4241    0.7333 C   0  0  0  0  0  0  0  0  0  0  0  0
   -2.3049   -0.5735    0.0597 C   0  0  0  0  0  0  0  0  0  0  0  0
   -1.7335   -0.0901   -1.2520 C   0  0  0  0  0  0  0  0  0  0  0  0
   -0.8632   -1.1080   -1.9092 C   0  0  0  0  0  0  0  0  0  0  0  0
    0.3224   -1.5167   -1.0817 C   0  0  0  0  0  0  0  0  0  0  0  0
    1.2356   -0.3500   -0.7573 C   0  0  0  0  0  0  0  0  0  0  0  0
    2.3652   -0.9006    0.0652 C   0  0  0  0  0  0  0  0  0  0  0  0
    3.4135    0.0586    0.4806 C   0  0  0  0  0  0  0  0  0  0  0  0
    2.9959    1.2195    1.3112 C   0  0  0  0  0  0  0  0  0  0  0  0
    4.4484    2.2233    1.7145 Cl  0  0  0  0  0  0  0  0  0  0  0  0
    1.9629    2.3308    0.3403 Cl  0  0  0  0  0  0  0  0  0  0  0  0
   -1.4892    1.8287    0.6905 H   0  0  0  0  0  0  0  0  0  0  0  0
   -2.4246    1.8514    2.1950 H   0  0  0  0  0  0  0  0  0  0  0  0
   -3.1434    2.5594    0.7386 H   0  0  0  0  0  0  0  0  0  0  0  0
   -3.5518   -0.0306    1.6755 H   0  0  0  0  0  0  0  0  0  0  0  0
   -4.0870    0.6137    0.1066 H   0  0  0  0  0  0  0  0  0  0  0  0
   -1.5023   -0.9268    0.7439 H   0  0  0  0  0  0  0  0  0  0  0  0
   -2.9193   -1.4688   -0.1722 H   0  0  0  0  0  0  0  0  0  0  0  0
   -2.5959    0.1015   -1.9232 H   0  0  0  0  0  0  0  0  0  0  0  0
   -1.2374    0.8886   -1.1021 H   0  0  0  0  0  0  0  0  0  0  0  0
   -0.5029   -0.7563   -2.8739 H   0  0  0  0  0  0  0  0  0  0  0  0
   -1.4734   -2.0214   -2.0706 H   0  0  0  0  0  0  0  0  0  0  0  0
    0.0499   -2.0218   -0.1347 H   0  0  0  0  0  0  0  0  0  0  0  0
    0.9212   -2.2342   -1.6794 H   0  0  0  0  0  0  0  0  0  0  0  0
    0.6258    0.3000   -0.0662 H   0  0  0  0  0  0  0  0  0  0  0  0
    1.5824    0.1720   -1.6504 H   0  0  0  0  0  0  0  0  0  0  0  0
    2.9061   -1.7259   -0.4963 H   0  0  0  0  0  0  0  0  0  0  0  0
    1.9986   -1.4324    0.9783 H   0  0  0  0  0  0  0  0  0  0  0  0
    4.1379   -0.5365    1.1191 H   0  0  0  0  0  0  0  0  0  0  0  0
    4.0461    0.4208   -0.3694 H   0  0  0  0  0  0  0  0  0  0  0  0
    2.5061    0.9902    2.2528 H   0  0  0  0  0  0  0  0  0  0  0  0
  1  2  1  0
  2  3  1  0
  3  4  1  0
  4  5  1  0
  5  6  1  0
  6  7  1  0
  7  8  1  0
  8  9  1  0
  9 10  1  0
 10 11  1  0
 10 12  1  0
  1 13  1  0
  1 14  1  0
  1 15  1  0
  2 16  1  0
  2 17  1  0
  3 18  1  0
  3 19  1  0
  4 20  1  0
  4 21  1  0
  5 22  1  0
  5 23  1  0
  6 24  1  0
  6 25  1  0
  7 26  1  0
  7 27  1  0
  8 28  1  0
  8 29  1  0
  9 30  1  0
  9 31  1  0
 10 32  1  0
A    1
-0.326024
A    2
-0.070168
A    3
-0.124078
A    4
-0.120882
A    5
-0.127208
A    6
-0.119688
A    7
-0.133409
A    8
-0.113920
A    9
-0.187622
A   10
0.182565
A   11
-0.207955
A   12
-0.154603
A   13
0.094927
A   14
0.093585
A   15
0.097076
A   16
0.054939
A   17
0.059087
A   18
0.064802
A   19
0.058547
A   20
0.062063
A   21
0.063551
A   22
0.061593
A   23
0.061019
A   24
0.061261
A   25
0.062602
A   26
0.056227
A   27
0.069032
A   28
0.074404
A   29
0.070132
A   30
0.098037
A   31
0.099996
A   32
0.140109
M  END
