
     RDKit          3D

 23 22  0  0  0  0  0  0  0  0999 V2000
   -3.2351   -0.2530    0.1031 C   0  0  0  0  0  0  0  0  0  0  0  0
   -1.8682   -0.6315   -0.4331 C   0  0  0  0  0  0  0  0  0  0  0  0
   -0.8433    0.0777    0.3976 C   0  0  0  0  0  0  0  0  0  0  0  0
    0.5735   -0.2124   -0.0315 C   0  0  0  0  0  0  0  0  0  0  0  0
    0.8490    0.1933   -1.4470 C   0  0  0  0  0  0  0  0  0  0  0  0
    0.9122   -1.9462    0.1561 Cl  0  0  0  0  0  0  0  0  0  0  0  0
    1.4920    0.5352    0.9102 C   0  0  0  0  0  0  0  0  0  0  0  0
    2.9436    0.3319    0.5929 C   0  0  0  0  0  0  0  0  0  0  0  0
   -3.7789    0.4131   -0.6110 H   0  0  0  0  0  0  0  0  0  0  0  0
   -3.8915   -1.1427    0.2353 H   0  0  0  0  0  0  0  0  0  0  0  0
   -3.1603    0.3205    1.0614 H   0  0  0  0  0  0  0  0  0  0  0  0
   -1.8411   -0.3742   -1.4968 H   0  0  0  0  0  0  0  0  0  0  0  0
   -1.7334   -1.7374   -0.2783 H   0  0  0  0  0  0  0  0  0  0  0  0
   -0.9504   -0.2946    1.4436 H   0  0  0  0  0  0  0  0  0  0  0  0
   -1.0622    1.1644    0.3729 H   0  0  0  0  0  0  0  0  0  0  0  0
    0.1050   -0.1420   -2.1640 H   0  0  0  0  0  0  0  0  0  0  0  0
    0.9988    1.3078   -1.4477 H   0  0  0  0  0  0  0  0  0  0  0  0
    1.8443   -0.2289   -1.7232 H   0  0  0  0  0  0  0  0  0  0  0  0
    1.2735    1.6390    0.8870 H   0  0  0  0  0  0  0  0  0  0  0  0
    1.3023    0.1480    1.9361 H   0  0  0  0  0  0  0  0  0  0  0  0
    3.3528    1.1500   -0.0254 H   0  0  0  0  0  0  0  0  0  0  0  0
    3.1325   -0.6126    0.0487 H   0  0  0  0  0  0  0  0  0  0  0  0
    3.5850    0.2948    1.5134 H   0  0  0  0  0  0  0  0  0  0  0  0
  1  2  1  0
  2  3  1  0
  3  4  1  0
  4  5  1  0
  4  6  1  0
  4  7  1  0
  7  8  1  0
  1  9  1  0
  1 10  1  0
  1 11  1  0
  2 12  1  0
  2 13  1  0
  3 14  1  0
  3 15  1  0
  5 16  1  0
  5 17  1  0
  5 18  1  0
  7 19  1  0
  7 20  1  0
  8 21  1  0
  8 22  1  0
  8 23  1  0
A    1
-0.321702
A    2
-0.071887
A    3
-0.209121
A    4
0.291873
A    5
-0.404910
A    6
-0.251612
A    7
-0.152485
A    8
-0.322434
A    9
0.096452
A   10
0.098021
A   11
0.099640
A   12
0.066680
A   13
0.062058
A   14
0.085806
A   15
0.087786
A   16
0.123102
A   17
0.124591
A   18
0.124707
A   19
0.085500
A   20
0.083129
A   21
0.101638
A   22
0.098079
A   23
0.105090
M  END
