
     RDKit          3D

 14 13  0  0  0  0  0  0  0  0999 V2000
    1.8704    0.1928   -0.2624 C   0  0  0  0  0  0  0  0  0  0  0  0
    0.5014   -0.4715   -0.3080 C   0  0  0  0  0  0  0  0  0  0  0  0
   -0.5588    0.3931    0.3367 C   0  0  0  0  0  0  0  0  0  0  0  0
   -1.8678   -0.3188    0.2554 C   0  0  0  0  0  0  0  0  0  0  0  0
   -0.0885    0.8068    1.9929 Cl  0  0  0  0  0  0  0  0  0  0  0  0
   -0.6726    1.9024   -0.6204 Cl  0  0  0  0  0  0  0  0  0  0  0  0
    2.5263   -0.4169   -0.9191 H   0  0  0  0  0  0  0  0  0  0  0  0
    1.8428    1.2256   -0.6686 H   0  0  0  0  0  0  0  0  0  0  0  0
    2.2767    0.1736    0.7872 H   0  0  0  0  0  0  0  0  0  0  0  0
    0.6192   -1.4398    0.2216 H   0  0  0  0  0  0  0  0  0  0  0  0
    0.2583   -0.6312   -1.3724 H   0  0  0  0  0  0  0  0  0  0  0  0
   -2.1718   -0.8254    1.1766 H   0  0  0  0  0  0  0  0  0  0  0  0
   -2.6973    0.4082    0.0148 H   0  0  0  0  0  0  0  0  0  0  0  0
   -1.8382   -0.9990   -0.6345 H   0  0  0  0  0  0  0  0  0  0  0  0
  1  2  1  0
  2  3  1  0
  3  4  1  0
  3  5  1  0
  3  6  1  0
  1  7  1  0
  1  8  1  0
  1  9  1  0
  2 10  1  0
  2 11  1  0
  4 12  1  0
  4 13  1  0
  4 14  1  0
A    1
-0.320091
A    2
-0.173505
A    3
0.363930
A    4
-0.442244
A    5
-0.191960
A    6
-0.193819
A    7
0.111299
A    8
0.103251
A    9
0.101796
A   10
0.106314
A   11
0.105773
A   12
0.141894
A   13
0.144447
A   14
0.142915
M  END
