
     RDKit          3D

 14 13  0  0  0  0  0  0  0  0999 V2000
   -1.3388    0.3915    0.7341 C   0  0  0  0  0  0  0  0  0  0  0  0
   -0.8385   -0.3542   -0.4554 C   0  0  0  0  0  0  0  0  0  0  0  0
    0.6103   -0.7856   -0.3292 C   0  0  0  0  0  0  0  0  0  0  0  0
    1.4595    0.4557   -0.1578 C   0  0  0  0  0  0  0  0  0  0  0  0
    3.1703    0.0828   -0.0005 Cl  0  0  0  0  0  0  0  0  0  0  0  0
   -0.9760    0.0252    1.7006 H   0  0  0  0  0  0  0  0  0  0  0  0
   -1.1369    1.4999    0.6814 H   0  0  0  0  0  0  0  0  0  0  0  0
   -2.4669    0.3294    0.7154 H   0  0  0  0  0  0  0  0  0  0  0  0
   -1.4816   -1.2438   -0.6010 H   0  0  0  0  0  0  0  0  0  0  0  0
   -0.9313    0.2611   -1.3583 H   0  0  0  0  0  0  0  0  0  0  0  0
    0.6597   -1.4490    0.5561 H   0  0  0  0  0  0  0  0  0  0  0  0
    0.8778   -1.3672   -1.2204 H   0  0  0  0  0  0  0  0  0  0  0  0
    1.3344    1.1583   -1.0056 H   0  0  0  0  0  0  0  0  0  0  0  0
    1.0581    0.9960    0.7407 H   0  0  0  0  0  0  0  0  0  0  0  0
  1  2  1  0
  2  3  1  0
  3  4  1  0
  4  5  1  0
  1  6  1  0
  1  7  1  0
  1  8  1  0
  2  9  1  0
  2 10  1  0
  3 11  1  0
  3 12  1  0
  4 13  1  0
  4 14  1  0
A    1
-0.327014
A    2
-0.070017
A    3
-0.144036
A    4
-0.020665
A    5
-0.231031
A    6
0.100820
A    7
0.096923
A    8
0.099222
A    9
0.067639
A   10
0.064513
A   11
0.081133
A   12
0.078747
A   13
0.103241
A   14
0.100525
M  END
