
     RDKit          3D

 23 22  0  0  0  0  0  0  0  0999 V2000
   -3.2134    0.1506   -0.0220 C   0  0  0  0  0  0  0  0  0  0  0  0
   -1.8912   -0.0727   -0.7840 C   0  0  0  0  0  0  0  0  0  0  0  0
   -0.8384   -0.1216    0.2668 C   0  0  0  0  0  0  0  0  0  0  0  0
    0.5649   -0.3436   -0.2010 C   0  0  0  0  0  0  0  0  0  0  0  0
    0.9432    0.7910   -1.1222 C   0  0  0  0  0  0  0  0  0  0  0  0
    1.4515   -0.2745    1.0159 C   0  0  0  0  0  0  0  0  0  0  0  0
    2.8950   -0.4761    0.7856 C   0  0  0  0  0  0  0  0  0  0  0  0
    3.6935    0.6594   -0.2779 Cl  0  0  0  0  0  0  0  0  0  0  0  0
   -3.2044    1.1721    0.4266 H   0  0  0  0  0  0  0  0  0  0  0  0
   -3.2069   -0.5975    0.7968 H   0  0  0  0  0  0  0  0  0  0  0  0
   -4.0420    0.0158   -0.7206 H   0  0  0  0  0  0  0  0  0  0  0  0
   -2.0189   -1.0433   -1.3075 H   0  0  0  0  0  0  0  0  0  0  0  0
   -1.8418    0.7816   -1.4815 H   0  0  0  0  0  0  0  0  0  0  0  0
   -0.9476    0.7640    0.9080 H   0  0  0  0  0  0  0  0  0  0  0  0
   -1.0955   -1.0011    0.9246 H   0  0  0  0  0  0  0  0  0  0  0  0
    0.6905   -1.2992   -0.7520 H   0  0  0  0  0  0  0  0  0  0  0  0
    1.3709    1.6358   -0.5053 H   0  0  0  0  0  0  0  0  0  0  0  0
    1.7179    0.4225   -1.8263 H   0  0  0  0  0  0  0  0  0  0  0  0
    0.0893    1.1722   -1.7003 H   0  0  0  0  0  0  0  0  0  0  0  0
    1.1096   -1.0843    1.7181 H   0  0  0  0  0  0  0  0  0  0  0  0
    1.2883    0.6884    1.5679 H   0  0  0  0  0  0  0  0  0  0  0  0
    3.0886   -1.5472    0.4952 H   0  0  0  0  0  0  0  0  0  0  0  0
    3.3969   -0.3921    1.7948 H   0  0  0  0  0  0  0  0  0  0  0  0
  1  2  1  0
  2  3  1  0
  3  4  1  0
  4  5  1  0
  4  6  1  0
  6  7  1  0
  7  8  1  0
  1  9  1  0
  1 10  1  0
  1 11  1  0
  2 12  1  0
  2 13  1  0
  3 14  1  0
  3 15  1  0
  4 16  1  0
  5 17  1  0
  5 18  1  0
  5 19  1  0
  6 20  1  0
  6 21  1  0
  7 22  1  0
  7 23  1  0
A    1
-0.326906
A    2
-0.072739
A    3
-0.161820
A    4
0.078050
A    5
-0.363930
A    6
-0.174830
A    7
-0.012744
A    8
-0.220890
A    9
0.097968
A   10
0.095975
A   11
0.094432
A   12
0.060264
A   13
0.060932
A   14
0.074035
A   15
0.063778
A   16
0.042039
A   17
0.103078
A   18
0.098002
A   19
0.099291
A   20
0.078993
A   21
0.087481
A   22
0.102494
A   23
0.097046
M  END
