
     RDKit          3D

 17 16  0  0  0  0  0  0  0  0999 V2000
   -2.4364   -0.1604    0.0402 C   0  0  0  0  0  0  0  0  0  0  0  0
   -1.1934   -0.3626   -0.8044 C   0  0  0  0  0  0  0  0  0  0  0  0
   -0.0145    0.0392    0.0518 C   0  0  0  0  0  0  0  0  0  0  0  0
   -0.2409    1.7501    0.4969 Cl  0  0  0  0  0  0  0  0  0  0  0  0
    1.2951   -0.0530   -0.7008 C   0  0  0  0  0  0  0  0  0  0  0  0
    2.3873    0.3670    0.2435 C   0  0  0  0  0  0  0  0  0  0  0  0
    2.3787   -0.7306    1.6388 Cl  0  0  0  0  0  0  0  0  0  0  0  0
   -2.4087    0.9071    0.4071 H   0  0  0  0  0  0  0  0  0  0  0  0
   -3.3669   -0.3344   -0.5066 H   0  0  0  0  0  0  0  0  0  0  0  0
   -2.3350   -0.7839    0.9342 H   0  0  0  0  0  0  0  0  0  0  0  0
   -1.2310    0.1903   -1.7590 H   0  0  0  0  0  0  0  0  0  0  0  0
   -1.1223   -1.4543   -0.9968 H   0  0  0  0  0  0  0  0  0  0  0  0
    0.0175   -0.5841    0.9422 H   0  0  0  0  0  0  0  0  0  0  0  0
    1.2696    0.5505   -1.6279 H   0  0  0  0  0  0  0  0  0  0  0  0
    1.5136   -1.0990   -1.0117 H   0  0  0  0  0  0  0  0  0  0  0  0
    3.3844    0.3771   -0.1971 H   0  0  0  0  0  0  0  0  0  0  0  0
    2.1030    1.3811    0.6461 H   0  0  0  0  0  0  0  0  0  0  0  0
  1  2  1  0
  2  3  1  0
  3  4  1  0
  3  5  1  0
  5  6  1  0
  6  7  1  0
  1  8  1  0
  1  9  1  0
  1 10  1  0
  2 11  1  0
  2 12  1  0
  3 13  1  0
  5 14  1  0
  5 15  1  0
  6 16  1  0
  6 17  1  0
A    1
-0.328292
A    2
-0.118793
A    3
0.131432
A    4
-0.229996
A    5
-0.192150
A    6
-0.024989
A    7
-0.209495
A    8
0.098115
A    9
0.105120
A   10
0.105474
A   11
0.082053
A   12
0.084741
A   13
0.079155
A   14
0.105041
A   15
0.099362
A   16
0.111251
A   17
0.101970
M  END
