
     RDKit          3D

 20 19  0  0  0  0  0  0  0  0999 V2000
   -1.9491   -0.4886    1.1704 C   0  0  0  0  0  0  0  0  0  0  0  0
   -0.7159    0.1569    0.5485 C   0  0  0  0  0  0  0  0  0  0  0  0
   -1.1717    1.0484   -0.5472 C   0  0  0  0  0  0  0  0  0  0  0  0
    0.1947   -0.9527    0.1208 C   0  0  0  0  0  0  0  0  0  0  0  0
    1.4686   -0.4649   -0.5180 C   0  0  0  0  0  0  0  0  0  0  0  0
    2.2817    0.3994    0.4039 C   0  0  0  0  0  0  0  0  0  0  0  0
    1.1915    0.4045   -2.0244 Cl  0  0  0  0  0  0  0  0  0  0  0  0
   -2.0719   -1.5174    0.7690 H   0  0  0  0  0  0  0  0  0  0  0  0
   -1.8182   -0.5747    2.2497 H   0  0  0  0  0  0  0  0  0  0  0  0
   -2.8608    0.1137    0.9147 H   0  0  0  0  0  0  0  0  0  0  0  0
   -0.2408    0.7507    1.3321 H   0  0  0  0  0  0  0  0  0  0  0  0
   -2.1751    1.4691   -0.2401 H   0  0  0  0  0  0  0  0  0  0  0  0
   -1.3558    0.5379   -1.5105 H   0  0  0  0  0  0  0  0  0  0  0  0
   -0.5079    1.9292   -0.6316 H   0  0  0  0  0  0  0  0  0  0  0  0
   -0.2857   -1.6842   -0.5395 H   0  0  0  0  0  0  0  0  0  0  0  0
    0.4951   -1.5009    1.0473 H   0  0  0  0  0  0  0  0  0  0  0  0
    2.0668   -1.3811   -0.7638 H   0  0  0  0  0  0  0  0  0  0  0  0
    3.3531    0.2270    0.1543 H   0  0  0  0  0  0  0  0  0  0  0  0
    2.1156    0.0832    1.4434 H   0  0  0  0  0  0  0  0  0  0  0  0
    1.9856    1.4445    0.2356 H   0  0  0  0  0  0  0  0  0  0  0  0
  1  2  1  0
  2  3  1  0
  2  4  1  0
  4  5  1  0
  5  6  1  0
  5  7  1  0
  1  8  1  0
  1  9  1  0
  1 10  1  0
  2 11  1  0
  3 12  1  0
  3 13  1  0
  3 14  1  0
  4 15  1  0
  4 16  1  0
  5 17  1  0
  6 18  1  0
  6 19  1  0
  6 20  1  0
A    1
-0.362362
A    2
0.133973
A    3
-0.367336
A    4
-0.216406
A    5
0.197778
A    6
-0.382903
A    7
-0.249160
A    8
0.104517
A    9
0.097642
A   10
0.101826
A   11
0.040040
A   12
0.099893
A   13
0.103223
A   14
0.094600
A   15
0.087381
A   16
0.084744
A   17
0.069015
A   18
0.119903
A   19
0.121585
A   20
0.122047
M  END
