
     RDKit          3D

 17 16  0  0  0  0  0  0  0  0999 V2000
   -2.0754    0.1249    0.3842 C   0  0  0  0  0  0  0  0  0  0  0  0
   -1.3437    0.2129   -0.9246 C   0  0  0  0  0  0  0  0  0  0  0  0
    0.1367    0.4551   -0.7410 C   0  0  0  0  0  0  0  0  0  0  0  0
    0.8153   -0.6258    0.0397 C   0  0  0  0  0  0  0  0  0  0  0  0
    2.2856   -0.2549    0.1460 C   0  0  0  0  0  0  0  0  0  0  0  0
    2.4357    1.3097    0.9803 Cl  0  0  0  0  0  0  0  0  0  0  0  0
    3.2363   -1.5210    0.9362 Cl  0  0  0  0  0  0  0  0  0  0  0  0
   -2.8559    0.9298    0.4904 H   0  0  0  0  0  0  0  0  0  0  0  0
   -2.6639   -0.8319    0.3934 H   0  0  0  0  0  0  0  0  0  0  0  0
   -1.4251    0.1857    1.2688 H   0  0  0  0  0  0  0  0  0  0  0  0
   -1.7413    1.1163   -1.4615 H   0  0  0  0  0  0  0  0  0  0  0  0
   -1.5478   -0.6475   -1.5572 H   0  0  0  0  0  0  0  0  0  0  0  0
    0.2440    1.3996   -0.1684 H   0  0  0  0  0  0  0  0  0  0  0  0
    0.6378    0.5513   -1.7256 H   0  0  0  0  0  0  0  0  0  0  0  0
    0.7753   -1.6175   -0.4445 H   0  0  0  0  0  0  0  0  0  0  0  0
    0.4286   -0.6464    1.0797 H   0  0  0  0  0  0  0  0  0  0  0  0
    2.6579   -0.1404   -0.8995 H   0  0  0  0  0  0  0  0  0  0  0  0
  1  2  1  0
  2  3  1  0
  3  4  1  0
  4  5  1  0
  5  6  1  0
  5  7  1  0
  1  8  1  0
  1  9  1  0
  1 10  1  0
  2 11  1  0
  2 12  1  0
  3 13  1  0
  3 14  1  0
  4 15  1  0
  4 16  1  0
  5 17  1  0
A    1
-0.326647
A    2
-0.066453
A    3
-0.123606
A    4
-0.193653
A    5
0.190888
A    6
-0.182296
A    7
-0.198469
A    8
0.101051
A    9
0.098042
A   10
0.100215
A   11
0.062210
A   12
0.062013
A   13
0.068089
A   14
0.071405
A   15
0.100441
A   16
0.096028
A   17
0.140741
M  END
