
     RDKit          3D

 17 16  0  0  0  0  0  0  0  0999 V2000
   -2.4219    0.2365    0.0399 C   0  0  0  0  0  0  0  0  0  0  0  0
   -1.2402   -0.4527   -0.6248 C   0  0  0  0  0  0  0  0  0  0  0  0
   -0.0074    0.1853   -0.0416 C   0  0  0  0  0  0  0  0  0  0  0  0
    0.0167   -0.0580    1.7152 Cl  0  0  0  0  0  0  0  0  0  0  0  0
    1.2718   -0.3936   -0.5979 C   0  0  0  0  0  0  0  0  0  0  0  0
    2.4106    0.3590    0.0935 C   0  0  0  0  0  0  0  0  0  0  0  0
    1.4312   -2.1028   -0.0644 Cl  0  0  0  0  0  0  0  0  0  0  0  0
   -2.1375    1.2510    0.3865 H   0  0  0  0  0  0  0  0  0  0  0  0
   -3.2786    0.3532   -0.6412 H   0  0  0  0  0  0  0  0  0  0  0  0
   -2.6661   -0.3539    0.9465 H   0  0  0  0  0  0  0  0  0  0  0  0
   -1.2473   -0.2076   -1.7162 H   0  0  0  0  0  0  0  0  0  0  0  0
   -1.2785   -1.5444   -0.4952 H   0  0  0  0  0  0  0  0  0  0  0  0
   -0.0422    1.2627   -0.3024 H   0  0  0  0  0  0  0  0  0  0  0  0
    1.3303   -0.2943   -1.6833 H   0  0  0  0  0  0  0  0  0  0  0  0
    3.3763   -0.1160   -0.0561 H   0  0  0  0  0  0  0  0  0  0  0  0
    2.1053    0.4680    1.1579 H   0  0  0  0  0  0  0  0  0  0  0  0
    2.3774    1.4076   -0.3200 H   0  0  0  0  0  0  0  0  0  0  0  0
  1  2  1  0
  2  3  1  0
  3  4  1  0
  3  5  1  0
  5  6  1  0
  5  7  1  0
  1  8  1  0
  1  9  1  0
  1 10  1  0
  2 11  1  0
  2 12  1  0
  3 13  1  0
  5 14  1  0
  6 15  1  0
  6 16  1  0
  6 17  1  0
A    1
-0.322979
A    2
-0.126277
A    3
0.076801
A    4
-0.203066
A    5
0.132733
A    6
-0.381032
A    7
-0.221261
A    8
0.101018
A    9
0.106393
A   10
0.099207
A   11
0.085181
A   12
0.081327
A   13
0.105264
A   14
0.103263
A   15
0.122821
A   16
0.117646
A   17
0.122960
M  END
