
     RDKit          3D

  8  7  0  0  0  0  0  0  0  0999 V2000
   -0.7766    0.0188    0.0430 C   0  0  0  0  0  0  0  0  0  0  0  0
    0.7185   -0.1600   -0.0592 C   0  0  0  0  0  0  0  0  0  0  0  0
    1.4442    1.4121   -0.3621 Cl  0  0  0  0  0  0  0  0  0  0  0  0
   -1.0735    1.1028    0.0126 H   0  0  0  0  0  0  0  0  0  0  0  0
   -1.0825   -0.3560    1.0325 H   0  0  0  0  0  0  0  0  0  0  0  0
   -1.3276   -0.5621   -0.7255 H   0  0  0  0  0  0  0  0  0  0  0  0
    1.1703   -0.5402    0.8868 H   0  0  0  0  0  0  0  0  0  0  0  0
    0.9272   -0.9152   -0.8280 H   0  0  0  0  0  0  0  0  0  0  0  0
  1  2  1  0
  2  3  1  0
  1  4  1  0
  1  5  1  0
  1  6  1  0
  2  7  1  0
  2  8  1  0
A    1
-0.339224
A    2
0.029112
A    3
-0.232405
A    4
0.115188
A    5
0.115114
A    6
0.114630
A    7
0.098989
A    8
0.098596
M  END
