
     RDKit          3D

 14 13  0  0  0  0  0  0  0  0999 V2000
   -0.9575   -0.9629    0.3778 C   0  0  0  0  0  0  0  0  0  0  0  0
   -0.1633    0.0289   -0.4171 C   0  0  0  0  0  0  0  0  0  0  0  0
    1.2616   -0.4265   -0.5649 C   0  0  0  0  0  0  0  0  0  0  0  0
    2.0732   -0.6206    0.9999 Cl  0  0  0  0  0  0  0  0  0  0  0  0
   -0.2708    1.4192    0.1631 C   0  0  0  0  0  0  0  0  0  0  0  0
    0.3156    1.5223    1.8195 Cl  0  0  0  0  0  0  0  0  0  0  0  0
   -1.4771   -1.6919   -0.2995 H   0  0  0  0  0  0  0  0  0  0  0  0
   -1.7434   -0.4708    0.9633 H   0  0  0  0  0  0  0  0  0  0  0  0
   -0.3205   -1.5663    1.0697 H   0  0  0  0  0  0  0  0  0  0  0  0
   -0.5907    0.0785   -1.4408 H   0  0  0  0  0  0  0  0  0  0  0  0
    1.7835    0.2878   -1.2170 H   0  0  0  0  0  0  0  0  0  0  0  0
    1.2440   -1.4169   -1.0536 H   0  0  0  0  0  0  0  0  0  0  0  0
    0.2151    2.1404   -0.5241 H   0  0  0  0  0  0  0  0  0  0  0  0
   -1.3698    1.6787    0.1236 H   0  0  0  0  0  0  0  0  0  0  0  0
  1  2  1  0
  2  3  1  0
  3  4  1  0
  2  5  1  0
  5  6  1  0
  1  7  1  0
  1  8  1  0
  1  9  1  0
  2 10  1  0
  3 11  1  0
  3 12  1  0
  5 13  1  0
  5 14  1  0
A    1
-0.367815
A    2
0.069399
A    3
-0.072634
A    4
-0.195897
A    5
-0.071380
A    6
-0.195892
A    7
0.111982
A    8
0.112719
A    9
0.103960
A   10
0.074885
A   11
0.106406
A   12
0.109725
A   13
0.107414
A   14
0.107128
M  END
