
     RDKit          3D

 14 13  0  0  0  0  0  0  0  0999 V2000
    0.3263    1.2761    0.4888 C   0  0  0  0  0  0  0  0  0  0  0  0
    0.0092   -0.2057    0.4215 C   0  0  0  0  0  0  0  0  0  0  0  0
    0.9775   -0.8263   -0.5462 C   0  0  0  0  0  0  0  0  0  0  0  0
    2.6247   -0.5232    0.1082 Cl  0  0  0  0  0  0  0  0  0  0  0  0
   -1.4253   -0.3452   -0.0480 C   0  0  0  0  0  0  0  0  0  0  0  0
   -1.8437   -2.0454   -0.1430 Cl  0  0  0  0  0  0  0  0  0  0  0  0
   -1.5830    0.3548   -1.6834 Cl  0  0  0  0  0  0  0  0  0  0  0  0
    0.3062    1.6425    1.5358 H   0  0  0  0  0  0  0  0  0  0  0  0
    1.3410    1.4899    0.0573 H   0  0  0  0  0  0  0  0  0  0  0  0
   -0.4358    1.8655   -0.0621 H   0  0  0  0  0  0  0  0  0  0  0  0
    0.1221   -0.6067    1.4395 H   0  0  0  0  0  0  0  0  0  0  0  0
    0.8851   -0.3323   -1.5349 H   0  0  0  0  0  0  0  0  0  0  0  0
    0.8132   -1.9223   -0.6698 H   0  0  0  0  0  0  0  0  0  0  0  0
   -2.1177    0.1784    0.6363 H   0  0  0  0  0  0  0  0  0  0  0  0
  1  2  1  0
  2  3  1  0
  3  4  1  0
  2  5  1  0
  5  6  1  0
  5  7  1  0
  1  8  1  0
  1  9  1  0
  1 10  1  0
  2 11  1  0
  3 12  1  0
  3 13  1  0
  5 14  1  0
A    1
-0.363476
A    2
0.012285
A    3
-0.074980
A    4
-0.190132
A    5
0.145216
A    6
-0.180864
A    7
-0.159553
A    8
0.118801
A    9
0.116221
A   10
0.110103
A   11
0.093671
A   12
0.114935
A   13
0.107542
A   14
0.150231
M  END
