
     RDKit          3D

 20 19  0  0  0  0  0  0  0  0999 V2000
   -1.4945    0.9893    0.5712 C   0  0  0  0  0  0  0  0  0  0  0  0
   -0.4117    0.0663   -0.0042 C   0  0  0  0  0  0  0  0  0  0  0  0
   -0.4567    0.2439   -1.4982 C   0  0  0  0  0  0  0  0  0  0  0  0
   -0.7115   -1.3711    0.3567 C   0  0  0  0  0  0  0  0  0  0  0  0
    0.8668    0.4622    0.6331 C   0  0  0  0  0  0  0  0  0  0  0  0
    2.0774   -0.3062    0.2269 C   0  0  0  0  0  0  0  0  0  0  0  0
    2.3307   -0.1257   -1.5159 Cl  0  0  0  0  0  0  0  0  0  0  0  0
   -2.4250    0.4308    0.6931 H   0  0  0  0  0  0  0  0  0  0  0  0
   -1.1656    1.3757    1.5773 H   0  0  0  0  0  0  0  0  0  0  0  0
   -1.5670    1.8634   -0.0838 H   0  0  0  0  0  0  0  0  0  0  0  0
   -0.1018   -0.6616   -2.0328 H   0  0  0  0  0  0  0  0  0  0  0  0
   -1.5273    0.3649   -1.8446 H   0  0  0  0  0  0  0  0  0  0  0  0
    0.1278    1.0932   -1.8701 H   0  0  0  0  0  0  0  0  0  0  0  0
    0.1451   -1.9790   -0.0008 H   0  0  0  0  0  0  0  0  0  0  0  0
   -1.6362   -1.7416   -0.1363 H   0  0  0  0  0  0  0  0  0  0  0  0
   -0.8004   -1.4787    1.4582 H   0  0  0  0  0  0  0  0  0  0  0  0
    0.7234    0.3764    1.7429 H   0  0  0  0  0  0  0  0  0  0  0  0
    1.0525    1.5614    0.4708 H   0  0  0  0  0  0  0  0  0  0  0  0
    2.9560    0.2041    0.7222 H   0  0  0  0  0  0  0  0  0  0  0  0
    2.0182   -1.3678    0.5342 H   0  0  0  0  0  0  0  0  0  0  0  0
  1  2  1  0
  2  3  1  0
  2  4  1  0
  2  5  1  0
  5  6  1  0
  6  7  1  0
  1  8  1  0
  1  9  1  0
  1 10  1  0
  3 11  1  0
  3 12  1  0
  3 13  1  0
  4 14  1  0
  4 15  1  0
  4 16  1  0
  5 17  1  0
  5 18  1  0
  6 19  1  0
  6 20  1  0
A    1
-0.386599
A    2
0.267279
A    3
-0.384464
A    4
-0.386374
A    5
-0.193772
A    6
-0.012101
A    7
-0.220317
A    8
0.105943
A    9
0.103524
A   10
0.107695
A   11
0.101559
A   12
0.105230
A   13
0.103141
A   14
0.103586
A   15
0.109859
A   16
0.104150
A   17
0.083671
A   18
0.086653
A   19
0.100642
A   20
0.100696
M  END
