
     RDKit          3D

 17 16  0  0  0  0  0  0  0  0999 V2000
   -0.6844    1.4097    0.5398 C   0  0  0  0  0  0  0  0  0  0  0  0
   -0.5381   -0.0737    0.5708 C   0  0  0  0  0  0  0  0  0  0  0  0
   -1.4033   -0.6976   -0.5055 C   0  0  0  0  0  0  0  0  0  0  0  0
    0.8832   -0.5499    0.4554 C   0  0  0  0  0  0  0  0  0  0  0  0
    1.5660   -0.1334   -0.8027 C   0  0  0  0  0  0  0  0  0  0  0  0
    1.8195    0.0786    1.8321 Cl  0  0  0  0  0  0  0  0  0  0  0  0
    0.8698   -2.3390    0.4681 Cl  0  0  0  0  0  0  0  0  0  0  0  0
   -0.8829    1.8050    1.5637 H   0  0  0  0  0  0  0  0  0  0  0  0
    0.1662    1.9574    0.1256 H   0  0  0  0  0  0  0  0  0  0  0  0
   -1.5996    1.7014   -0.0551 H   0  0  0  0  0  0  0  0  0  0  0  0
   -0.9316   -0.4489    1.5414 H   0  0  0  0  0  0  0  0  0  0  0  0
   -2.1145    0.0674   -0.9232 H   0  0  0  0  0  0  0  0  0  0  0  0
   -1.9191   -1.5917   -0.1312 H   0  0  0  0  0  0  0  0  0  0  0  0
   -0.7087   -1.0326   -1.3304 H   0  0  0  0  0  0  0  0  0  0  0  0
    2.6619   -0.3706   -0.6524 H   0  0  0  0  0  0  0  0  0  0  0  0
    1.2764   -0.7369   -1.6946 H   0  0  0  0  0  0  0  0  0  0  0  0
    1.5393    0.9550   -1.0019 H   0  0  0  0  0  0  0  0  0  0  0  0
  1  2  1  0
  2  3  1  0
  2  4  1  0
  4  5  1  0
  4  6  1  0
  4  7  1  0
  1  8  1  0
  1  9  1  0
  1 10  1  0
  2 11  1  0
  3 12  1  0
  3 13  1  0
  3 14  1  0
  5 15  1  0
  5 16  1  0
  5 17  1  0
A    1
-0.355302
A    2
0.033768
A    3
-0.351307
A    4
0.336254
A    5
-0.431584
A    6
-0.201824
A    7
-0.203361
A    8
0.104981
A    9
0.111396
A   10
0.116641
A   11
0.076934
A   12
0.117010
A   13
0.104134
A   14
0.108682
A   15
0.149312
A   16
0.141733
A   17
0.142533
M  END
