
     RDKit          3D

 23 22  0  0  0  0  0  0  0  0999 V2000
   -3.3846   -0.1655    0.0675 C   0  0  0  0  0  0  0  0  0  0  0  0
   -1.8833   -0.0587    0.3483 C   0  0  0  0  0  0  0  0  0  0  0  0
   -1.1930   -0.8109   -0.7556 C   0  0  0  0  0  0  0  0  0  0  0  0
    0.3208   -0.7868   -0.6005 C   0  0  0  0  0  0  0  0  0  0  0  0
    0.8678    0.5935   -0.6189 C   0  0  0  0  0  0  0  0  0  0  0  0
    2.3357    0.7641   -0.5061 C   0  0  0  0  0  0  0  0  0  0  0  0
    2.6235    2.5528   -0.5725 Cl  0  0  0  0  0  0  0  0  0  0  0  0
    3.0056    0.2896    0.7261 C   0  0  0  0  0  0  0  0  0  0  0  0
    2.8902   -1.4128    1.0956 Cl  0  0  0  0  0  0  0  0  0  0  0  0
   -3.6526    0.4698   -0.7912 H   0  0  0  0  0  0  0  0  0  0  0  0
   -3.9911    0.0370    0.9538 H   0  0  0  0  0  0  0  0  0  0  0  0
   -3.6317   -1.2213   -0.2476 H   0  0  0  0  0  0  0  0  0  0  0  0
   -1.6716   -0.4618    1.3528 H   0  0  0  0  0  0  0  0  0  0  0  0
   -1.6342    1.0215    0.3680 H   0  0  0  0  0  0  0  0  0  0  0  0
   -1.4251   -0.2897   -1.7064 H   0  0  0  0  0  0  0  0  0  0  0  0
   -1.5146   -1.8541   -0.7185 H   0  0  0  0  0  0  0  0  0  0  0  0
    0.7309   -1.3428   -1.4654 H   0  0  0  0  0  0  0  0  0  0  0  0
    0.5662   -1.2946    0.3564 H   0  0  0  0  0  0  0  0  0  0  0  0
    0.5782    1.0590   -1.6067 H   0  0  0  0  0  0  0  0  0  0  0  0
    0.3884    1.2145    0.1984 H   0  0  0  0  0  0  0  0  0  0  0  0
    2.8544    0.3015   -1.3792 H   0  0  0  0  0  0  0  0  0  0  0  0
    2.7190    0.8744    1.6322 H   0  0  0  0  0  0  0  0  0  0  0  0
    4.1010    0.5215    0.6006 H   0  0  0  0  0  0  0  0  0  0  0  0
  1  2  1  0
  2  3  1  0
  3  4  1  0
  4  5  1  0
  5  6  1  0
  6  7  1  0
  6  8  1  0
  8  9  1  0
  1 10  1  0
  1 11  1  0
  1 12  1  0
  2 13  1  0
  2 14  1  0
  3 15  1  0
  3 16  1  0
  4 17  1  0
  4 18  1  0
  5 19  1  0
  5 20  1  0
  6 21  1  0
  8 22  1  0
  8 23  1  0
A    1
-0.330802
A    2
-0.069332
A    3
-0.124266
A    4
-0.127529
A    5
-0.176272
A    6
0.125023
A    7
-0.234794
A    8
-0.087723
A    9
-0.184631
A   10
0.097374
A   11
0.095117
A   12
0.096767
A   13
0.063174
A   14
0.061763
A   15
0.066896
A   16
0.066720
A   17
0.068243
A   18
0.065734
A   19
0.086522
A   20
0.082466
A   21
0.102599
A   22
0.130888
A   23
0.126063
M  END
