
     RDKit          3D

 26 25  0  0  0  0  0  0  0  0999 V2000
    3.3230    0.1297    0.5137 C   0  0  0  0  0  0  0  0  0  0  0  0
    2.1484    0.9745    0.1265 C   0  0  0  0  0  0  0  0  0  0  0  0
    1.2362    0.3203   -0.8691 C   0  0  0  0  0  0  0  0  0  0  0  0
    0.6447   -0.9640   -0.3865 C   0  0  0  0  0  0  0  0  0  0  0  0
   -0.1809   -0.8327    0.8531 C   0  0  0  0  0  0  0  0  0  0  0  0
   -1.3562    0.0996    0.6843 C   0  0  0  0  0  0  0  0  0  0  0  0
   -2.2950   -0.3654   -0.4009 C   0  0  0  0  0  0  0  0  0  0  0  0
   -3.4634    0.5841   -0.5508 C   0  0  0  0  0  0  0  0  0  0  0  0
   -2.9363   -1.9826   -0.0935 Cl  0  0  0  0  0  0  0  0  0  0  0  0
    3.8126    0.6440    1.3874 H   0  0  0  0  0  0  0  0  0  0  0  0
    4.1100    0.0877   -0.2727 H   0  0  0  0  0  0  0  0  0  0  0  0
    3.0347   -0.8664    0.8847 H   0  0  0  0  0  0  0  0  0  0  0  0
    2.5315    1.9130   -0.3214 H   0  0  0  0  0  0  0  0  0  0  0  0
    1.5747    1.1963    1.0601 H   0  0  0  0  0  0  0  0  0  0  0  0
    0.4887    1.0625   -1.1933 H   0  0  0  0  0  0  0  0  0  0  0  0
    1.8514    0.0856   -1.7659 H   0  0  0  0  0  0  0  0  0  0  0  0
    1.4761   -1.6620   -0.1634 H   0  0  0  0  0  0  0  0  0  0  0  0
    0.0828   -1.4153   -1.2298 H   0  0  0  0  0  0  0  0  0  0  0  0
   -0.5322   -1.8491    1.1290 H   0  0  0  0  0  0  0  0  0  0  0  0
    0.4815   -0.4849    1.6713 H   0  0  0  0  0  0  0  0  0  0  0  0
   -1.0536    1.1225    0.4639 H   0  0  0  0  0  0  0  0  0  0  0  0
   -1.9247    0.1095    1.6367 H   0  0  0  0  0  0  0  0  0  0  0  0
   -1.7901   -0.3956   -1.3951 H   0  0  0  0  0  0  0  0  0  0  0  0
   -4.4263    0.0363   -0.5846 H   0  0  0  0  0  0  0  0  0  0  0  0
   -3.4682    1.2366    0.3522 H   0  0  0  0  0  0  0  0  0  0  0  0
   -3.3694    1.2158   -1.4725 H   0  0  0  0  0  0  0  0  0  0  0  0
  1  2  1  0
  2  3  1  0
  3  4  1  0
  4  5  1  0
  5  6  1  0
  6  7  1  0
  7  8  1  0
  7  9  1  0
  1 10  1  0
  1 11  1  0
  1 12  1  0
  2 13  1  0
  2 14  1  0
  3 15  1  0
  3 16  1  0
  4 17  1  0
  4 18  1  0
  5 19  1  0
  5 20  1  0
  6 21  1  0
  6 22  1  0
  7 23  1  0
  8 24  1  0
  8 25  1  0
  8 26  1  0
A    1
-0.328980
A    2
-0.070667
A    3
-0.124584
A    4
-0.130032
A    5
-0.125709
A    6
-0.177334
A    7
0.187036
A    8
-0.381242
A    9
-0.247281
A   10
0.097947
A   11
0.097490
A   12
0.095912
A   13
0.057577
A   14
0.060859
A   15
0.058064
A   16
0.064705
A   17
0.070074
A   18
0.062004
A   19
0.063682
A   20
0.067934
A   21
0.084011
A   22
0.087346
A   23
0.075239
A   24
0.116614
A   25
0.119572
A   26
0.119760
M  END
