
     RDKit          3D

 32 31  0  0  0  0  0  0  0  0999 V2000
    5.0419    0.8657   -1.3719 Cl  0  0  0  0  0  0  0  0  0  0  0  0
    3.5568    1.5135   -0.6003 C   0  0  0  0  0  0  0  0  0  0  0  0
    3.3861    0.7760    0.6988 C   0  0  0  0  0  0  0  0  0  0  0  0
    3.2523   -0.6964    0.3976 C   0  0  0  0  0  0  0  0  0  0  0  0
    2.0827   -0.9991   -0.4759 C   0  0  0  0  0  0  0  0  0  0  0  0
    0.8251   -0.5530    0.2009 C   0  0  0  0  0  0  0  0  0  0  0  0
   -0.3830   -0.8671   -0.6940 C   0  0  0  0  0  0  0  0  0  0  0  0
   -1.5983   -0.3664    0.1049 C   0  0  0  0  0  0  0  0  0  0  0  0
   -2.8599   -0.5994   -0.6320 C   0  0  0  0  0  0  0  0  0  0  0  0
   -4.1074   -0.2089    0.0793 C   0  0  0  0  0  0  0  0  0  0  0  0
   -4.2553    1.2221    0.4813 C   0  0  0  0  0  0  0  0  0  0  0  0
   -3.0458    1.7198    1.6420 Cl  0  0  0  0  0  0  0  0  0  0  0  0
    3.6476    2.6115   -0.4571 H   0  0  0  0  0  0  0  0  0  0  0  0
    2.7276    1.3541   -1.2845 H   0  0  0  0  0  0  0  0  0  0  0  0
    2.5358    1.1949    1.2708 H   0  0  0  0  0  0  0  0  0  0  0  0
    4.3238    0.9220    1.3056 H   0  0  0  0  0  0  0  0  0  0  0  0
    4.1711   -0.9927   -0.1481 H   0  0  0  0  0  0  0  0  0  0  0  0
    3.1343   -1.2907    1.3349 H   0  0  0  0  0  0  0  0  0  0  0  0
    2.0488   -2.1195   -0.5811 H   0  0  0  0  0  0  0  0  0  0  0  0
    2.1463   -0.5772   -1.4966 H   0  0  0  0  0  0  0  0  0  0  0  0
    0.6501   -1.1628    1.1274 H   0  0  0  0  0  0  0  0  0  0  0  0
    0.8216    0.5174    0.4384 H   0  0  0  0  0  0  0  0  0  0  0  0
   -0.3093   -0.3959   -1.6726 H   0  0  0  0  0  0  0  0  0  0  0  0
   -0.4165   -1.9698   -0.7978 H   0  0  0  0  0  0  0  0  0  0  0  0
   -1.4565    0.7598    0.1636 H   0  0  0  0  0  0  0  0  0  0  0  0
   -1.5310   -0.8056    1.1096 H   0  0  0  0  0  0  0  0  0  0  0  0
   -2.7630   -0.0474   -1.6109 H   0  0  0  0  0  0  0  0  0  0  0  0
   -2.9220   -1.7012   -0.8349 H   0  0  0  0  0  0  0  0  0  0  0  0
   -4.1549   -0.8039    1.0544 H   0  0  0  0  0  0  0  0  0  0  0  0
   -5.0196   -0.5405   -0.5036 H   0  0  0  0  0  0  0  0  0  0  0  0
   -5.2754    1.3913    0.9398 H   0  0  0  0  0  0  0  0  0  0  0  0
   -4.2541    1.8493   -0.4441 H   0  0  0  0  0  0  0  0  0  0  0  0
  1  2  1  0
  2  3  1  0
  3  4  1  0
  4  5  1  0
  5  6  1  0
  6  7  1  0
  7  8  1  0
  8  9  1  0
  9 10  1  0
 10 11  1  0
 11 12  1  0
  2 13  1  0
  2 14  1  0
  3 15  1  0
  3 16  1  0
  4 17  1  0
  4 18  1  0
  5 19  1  0
  5 20  1  0
  6 21  1  0
  6 22  1  0
  7 23  1  0
  7 24  1  0
  8 25  1  0
  8 26  1  0
  9 27  1  0
  9 28  1  0
 10 29  1  0
 10 30  1  0
 11 31  1  0
 11 32  1  0
A    1
-0.216523
A    2
-0.025197
A    3
-0.134860
A    4
-0.130862
A    5
-0.130739
A    6
-0.122852
A    7
-0.127727
A    8
-0.132723
A    9
-0.123821
A   10
-0.133607
A   11
-0.021148
A   12
-0.222133
A   13
0.101255
A   14
0.100627
A   15
0.081655
A   16
0.079418
A   17
0.060574
A   18
0.071348
A   19
0.070244
A   20
0.062272
A   21
0.069021
A   22
0.064600
A   23
0.067175
A   24
0.064432
A   25
0.062845
A   26
0.066515
A   27
0.066474
A   28
0.068869
A   29
0.083264
A   30
0.076124
A   31
0.101039
A   32
0.104444
M  END
