
     RDKit          3D

 17 16  0  0  0  0  0  0  0  0999 V2000
   -1.0330   -0.3148   -1.2592 C   0  0  0  0  0  0  0  0  0  0  0  0
   -0.5528   -0.1199    0.1155 C   0  0  0  0  0  0  0  0  0  0  0  0
   -1.3915    0.9524    0.8186 C   0  0  0  0  0  0  0  0  0  0  0  0
   -0.9193   -1.6308    1.0111 Cl  0  0  0  0  0  0  0  0  0  0  0  0
    0.8742    0.2362    0.3119 C   0  0  0  0  0  0  0  0  0  0  0  0
    1.1448    0.4033    2.0855 Cl  0  0  0  0  0  0  0  0  0  0  0  0
    1.8885   -0.7074   -0.1963 C   0  0  0  0  0  0  0  0  0  0  0  0
    3.5064   -0.0425    0.1676 Cl  0  0  0  0  0  0  0  0  0  0  0  0
   -0.3101   -0.1360   -2.0698 H   0  0  0  0  0  0  0  0  0  0  0  0
   -1.8929    0.3759   -1.4767 H   0  0  0  0  0  0  0  0  0  0  0  0
   -1.4572   -1.3415   -1.4704 H   0  0  0  0  0  0  0  0  0  0  0  0
   -1.3183    1.9136    0.2871 H   0  0  0  0  0  0  0  0  0  0  0  0
   -0.9352    1.0875    1.8196 H   0  0  0  0  0  0  0  0  0  0  0  0
   -2.4487    0.6329    0.9124 H   0  0  0  0  0  0  0  0  0  0  0  0
    1.0968    1.2475   -0.0922 H   0  0  0  0  0  0  0  0  0  0  0  0
    1.8979   -0.8549   -1.2905 H   0  0  0  0  0  0  0  0  0  0  0  0
    1.8505   -1.7016    0.3258 H   0  0  0  0  0  0  0  0  0  0  0  0
  1  2  1  0
  2  3  1  0
  2  4  1  0
  2  5  1  0
  5  6  1  0
  5  7  1  0
  7  8  1  0
  1  9  1  0
  1 10  1  0
  1 11  1  0
  3 12  1  0
  3 13  1  0
  3 14  1  0
  5 15  1  0
  7 16  1  0
  7 17  1  0
A    1
-0.404463
A    2
0.311854
A    3
-0.412384
A    4
-0.232636
A    5
0.028330
A    6
-0.194262
A    7
-0.087495
A    8
-0.189651
A    9
0.135199
A   10
0.128464
A   11
0.130206
A   12
0.130157
A   13
0.122931
A   14
0.129929
A   15
0.141949
A   16
0.136037
A   17
0.125835
M  END
