
     RDKit          3D

  5  4  0  0  0  0  0  0  0  0999 V2000
    1.5385   -0.8927   -0.1279 Cl  0  0  0  0  0  0  0  0  0  0  0  0
    0.0137   -0.0122   -0.0171 C   0  0  0  0  0  0  0  0  0  0  0  0
    0.2617    1.7015   -0.4035 Cl  0  0  0  0  0  0  0  0  0  0  0  0
   -0.5932   -0.1101    1.6444 Cl  0  0  0  0  0  0  0  0  0  0  0  0
   -1.2207   -0.6864   -1.0959 Cl  0  0  0  0  0  0  0  0  0  0  0  0
  1  2  1  0
  2  3  1  0
  2  4  1  0
  2  5  1  0
A    1
-0.085780
A    2
0.343799
A    3
-0.086233
A    4
-0.085662
A    5
-0.086125
M  END
