
     RDKit          3D

 29 28  0  0  0  0  0  0  0  0999 V2000
    3.5015    0.2640   -0.0175 C   0  0  0  0  0  0  0  0  0  0  0  0
    2.2754   -0.1056    0.7983 C   0  0  0  0  0  0  0  0  0  0  0  0
    1.0809    0.0323   -0.1277 C   0  0  0  0  0  0  0  0  0  0  0  0
   -0.2196   -0.3115    0.5721 C   0  0  0  0  0  0  0  0  0  0  0  0
   -0.4351    0.6105    1.7488 C   0  0  0  0  0  0  0  0  0  0  0  0
   -0.2147   -1.9877    1.1497 Cl  0  0  0  0  0  0  0  0  0  0  0  0
   -1.3289   -0.1604   -0.4375 C   0  0  0  0  0  0  0  0  0  0  0  0
   -1.0276   -1.1331   -1.5796 C   0  0  0  0  0  0  0  0  0  0  0  0
   -1.4479    1.2435   -0.9708 C   0  0  0  0  0  0  0  0  0  0  0  0
   -2.6662   -0.5301    0.1712 C   0  0  0  0  0  0  0  0  0  0  0  0
    3.6176    1.3653    0.0372 H   0  0  0  0  0  0  0  0  0  0  0  0
    3.3128   -0.0783   -1.0561 H   0  0  0  0  0  0  0  0  0  0  0  0
    4.3975   -0.2794    0.3420 H   0  0  0  0  0  0  0  0  0  0  0  0
    2.1844    0.5157    1.6914 H   0  0  0  0  0  0  0  0  0  0  0  0
    2.3972   -1.1732    1.0720 H   0  0  0  0  0  0  0  0  0  0  0  0
    0.9822    1.0645   -0.5190 H   0  0  0  0  0  0  0  0  0  0  0  0
    1.2367   -0.6303   -1.0029 H   0  0  0  0  0  0  0  0  0  0  0  0
   -1.4965    0.9781    1.7156 H   0  0  0  0  0  0  0  0  0  0  0  0
   -0.2489    0.0915    2.7131 H   0  0  0  0  0  0  0  0  0  0  0  0
    0.2812    1.4435    1.6677 H   0  0  0  0  0  0  0  0  0  0  0  0
   -0.3645   -0.6321   -2.3120 H   0  0  0  0  0  0  0  0  0  0  0  0
   -1.9932   -1.4633   -2.0199 H   0  0  0  0  0  0  0  0  0  0  0  0
   -0.5451   -2.0628   -1.1834 H   0  0  0  0  0  0  0  0  0  0  0  0
   -2.4914    1.6263   -0.9607 H   0  0  0  0  0  0  0  0  0  0  0  0
   -1.0281    1.2714   -2.0152 H   0  0  0  0  0  0  0  0  0  0  0  0
   -0.8482    1.9807   -0.3919 H   0  0  0  0  0  0  0  0  0  0  0  0
   -3.2568   -1.0370   -0.6301 H   0  0  0  0  0  0  0  0  0  0  0  0
   -3.1574    0.3676    0.5537 H   0  0  0  0  0  0  0  0  0  0  0  0
   -2.4972   -1.2701    0.9916 H   0  0  0  0  0  0  0  0  0  0  0  0
  1  2  1  0
  2  3  1  0
  3  4  1  0
  4  5  1  0
  4  6  1  0
  4  7  1  0
  7  8  1  0
  7  9  1  0
  7 10  1  0
  1 11  1  0
  1 12  1  0
  1 13  1  0
  2 14  1  0
  2 15  1  0
  3 16  1  0
  3 17  1  0
  5 18  1  0
  5 19  1  0
  5 20  1  0
  8 21  1  0
  8 22  1  0
  8 23  1  0
  9 24  1  0
  9 25  1  0
  9 26  1  0
 10 27  1  0
 10 28  1  0
 10 29  1  0
A    1
-0.323511
A    2
-0.069688
A    3
-0.204820
A    4
0.242693
A    5
-0.409890
A    6
-0.242639
A    7
0.200179
A    8
-0.384850
A    9
-0.376930
A   10
-0.382472
A   11
0.097959
A   12
0.100477
A   13
0.098281
A   14
0.067477
A   15
0.061779
A   16
0.087982
A   17
0.087168
A   18
0.125051
A   19
0.124961
A   20
0.124554
A   21
0.106981
A   22
0.112779
A   23
0.105187
A   24
0.114389
A   25
0.105307
A   26
0.109932
A   27
0.109579
A   28
0.107403
A   29
0.104681
M  END
