
     RDKit          3D

 23 22  0  0  0  0  0  0  0  0999 V2000
   -3.4341   -0.4607   -0.3759 C   0  0  0  0  0  0  0  0  0  0  0  0
   -2.3476    0.3807    0.2084 C   0  0  0  0  0  0  0  0  0  0  0  0
   -0.9739    0.0478   -0.3608 C   0  0  0  0  0  0  0  0  0  0  0  0
    0.0105    0.9604    0.3094 C   0  0  0  0  0  0  0  0  0  0  0  0
    1.4277    0.7439   -0.1592 C   0  0  0  0  0  0  0  0  0  0  0  0
    1.9063   -0.6651    0.1094 C   0  0  0  0  0  0  0  0  0  0  0  0
    3.3436   -0.7333   -0.4143 C   0  0  0  0  0  0  0  0  0  0  0  0
    3.3918   -0.3791   -2.1470 Cl  0  0  0  0  0  0  0  0  0  0  0  0
   -3.8404   -1.2047    0.3701 H   0  0  0  0  0  0  0  0  0  0  0  0
   -3.1390   -0.9774   -1.3223 H   0  0  0  0  0  0  0  0  0  0  0  0
   -4.3009    0.2215   -0.5905 H   0  0  0  0  0  0  0  0  0  0  0  0
   -2.5101    1.4547    0.0059 H   0  0  0  0  0  0  0  0  0  0  0  0
   -2.2784    0.1798    1.3013 H   0  0  0  0  0  0  0  0  0  0  0  0
   -0.6937   -1.0132   -0.1392 H   0  0  0  0  0  0  0  0  0  0  0  0
   -0.9928    0.1488   -1.4622 H   0  0  0  0  0  0  0  0  0  0  0  0
   -0.0218    0.7573    1.3922 H   0  0  0  0  0  0  0  0  0  0  0  0
   -0.2540    2.0166    0.0964 H   0  0  0  0  0  0  0  0  0  0  0  0
    2.0716    1.4136    0.4634 H   0  0  0  0  0  0  0  0  0  0  0  0
    1.5826    1.0336   -1.2173 H   0  0  0  0  0  0  0  0  0  0  0  0
    1.9292   -0.8523    1.1867 H   0  0  0  0  0  0  0  0  0  0  0  0
    1.3434   -1.4257   -0.4677 H   0  0  0  0  0  0  0  0  0  0  0  0
    3.9580    0.0530    0.1046 H   0  0  0  0  0  0  0  0  0  0  0  0
    3.8220   -1.7002   -0.1604 H   0  0  0  0  0  0  0  0  0  0  0  0
  1  2  1  0
  2  3  1  0
  3  4  1  0
  4  5  1  0
  5  6  1  0
  6  7  1  0
  7  8  1  0
  1  9  1  0
  1 10  1  0
  1 11  1  0
  2 12  1  0
  2 13  1  0
  3 14  1  0
  3 15  1  0
  4 16  1  0
  4 17  1  0
  5 18  1  0
  5 19  1  0
  6 20  1  0
  6 21  1  0
  7 22  1  0
  7 23  1  0
A    1
-0.331799
A    2
-0.072825
A    3
-0.125413
A    4
-0.128605
A    5
-0.127522
A    6
-0.132764
A    7
-0.024526
A    8
-0.220725
A    9
0.097289
A   10
0.097629
A   11
0.094248
A   12
0.059554
A   13
0.059447
A   14
0.065369
A   15
0.068455
A   16
0.064900
A   17
0.065225
A   18
0.064852
A   19
0.065094
A   20
0.083602
A   21
0.077484
A   22
0.103165
A   23
0.097863
M  END
