
     RDKit          3D

 17 16  0  0  0  0  0  0  0  0999 V2000
    1.2402   -0.8431   -0.3281 C   0  0  0  0  0  0  0  0  0  0  0  0
    0.0158   -0.0155   -0.0417 C   0  0  0  0  0  0  0  0  0  0  0  0
   -0.8997   -0.0212   -1.2417 C   0  0  0  0  0  0  0  0  0  0  0  0
   -0.7988   -0.5811    1.1175 C   0  0  0  0  0  0  0  0  0  0  0  0
    0.1110   -0.6531    2.6140 Cl  0  0  0  0  0  0  0  0  0  0  0  0
    0.4574    1.3850    0.3224 C   0  0  0  0  0  0  0  0  0  0  0  0
   -0.9075    2.4339    0.6765 Cl  0  0  0  0  0  0  0  0  0  0  0  0
    1.6584   -1.3171    0.5851 H   0  0  0  0  0  0  0  0  0  0  0  0
    2.0372   -0.1445   -0.6887 H   0  0  0  0  0  0  0  0  0  0  0  0
    1.0529   -1.5947   -1.1355 H   0  0  0  0  0  0  0  0  0  0  0  0
   -0.6199   -0.8954   -1.8840 H   0  0  0  0  0  0  0  0  0  0  0  0
   -1.9671   -0.1845   -0.9660 H   0  0  0  0  0  0  0  0  0  0  0  0
   -0.7486    0.9008   -1.8219 H   0  0  0  0  0  0  0  0  0  0  0  0
   -1.6893    0.1095    1.1962 H   0  0  0  0  0  0  0  0  0  0  0  0
   -1.1513   -1.6047    0.8687 H   0  0  0  0  0  0  0  0  0  0  0  0
    1.1068    1.2709    1.2340 H   0  0  0  0  0  0  0  0  0  0  0  0
    1.1024    1.7549   -0.5067 H   0  0  0  0  0  0  0  0  0  0  0  0
  1  2  1  0
  2  3  1  0
  2  4  1  0
  4  5  1  0
  2  6  1  0
  6  7  1  0
  1  8  1  0
  1  9  1  0
  1 10  1  0
  3 11  1  0
  3 12  1  0
  3 13  1  0
  4 14  1  0
  4 15  1  0
  6 16  1  0
  6 17  1  0
A    1
-0.387845
A    2
0.213536
A    3
-0.384781
A    4
-0.096475
A    5
-0.192590
A    6
-0.093998
A    7
-0.193119
A    8
0.108905
A    9
0.117121
A   10
0.119637
A   11
0.117076
A   12
0.108077
A   13
0.118146
A   14
0.105143
A   15
0.118679
A   16
0.104519
A   17
0.117970
M  END
