
     RDKit          3D

 20 19  0  0  0  0  0  0  0  0999 V2000
   -3.0734   -0.0406   -0.0624 C   0  0  0  0  0  0  0  0  0  0  0  0
   -1.8371   -0.4158    0.7667 C   0  0  0  0  0  0  0  0  0  0  0  0
   -0.6453    0.0951   -0.0048 C   0  0  0  0  0  0  0  0  0  0  0  0
    0.6608   -0.1953    0.6806 C   0  0  0  0  0  0  0  0  0  0  0  0
    1.7543    0.3839   -0.2261 C   0  0  0  0  0  0  0  0  0  0  0  0
    3.1212    0.1696    0.3299 C   0  0  0  0  0  0  0  0  0  0  0  0
    1.5490   -0.4093   -1.8233 Cl  0  0  0  0  0  0  0  0  0  0  0  0
   -3.9920   -0.0648    0.5430 H   0  0  0  0  0  0  0  0  0  0  0  0
   -2.8484    0.9879   -0.4618 H   0  0  0  0  0  0  0  0  0  0  0  0
   -3.1359   -0.6853   -0.9689 H   0  0  0  0  0  0  0  0  0  0  0  0
   -1.8320   -1.5219    0.8066 H   0  0  0  0  0  0  0  0  0  0  0  0
   -1.9299    0.0236    1.7588 H   0  0  0  0  0  0  0  0  0  0  0  0
   -0.7383    1.2014   -0.0961 H   0  0  0  0  0  0  0  0  0  0  0  0
   -0.6288   -0.3870   -0.9980 H   0  0  0  0  0  0  0  0  0  0  0  0
    0.7509    0.2495    1.6749 H   0  0  0  0  0  0  0  0  0  0  0  0
    0.8395   -1.2886    0.7499 H   0  0  0  0  0  0  0  0  0  0  0  0
    1.4941    1.4520   -0.3546 H   0  0  0  0  0  0  0  0  0  0  0  0
    3.6028   -0.7154   -0.1450 H   0  0  0  0  0  0  0  0  0  0  0  0
    3.7609    1.0426    0.0103 H   0  0  0  0  0  0  0  0  0  0  0  0
    3.1276    0.1183    1.4348 H   0  0  0  0  0  0  0  0  0  0  0  0
  1  2  1  0
  2  3  1  0
  3  4  1  0
  4  5  1  0
  5  6  1  0
  5  7  1  0
  1  8  1  0
  1  9  1  0
  1 10  1  0
  2 11  1  0
  2 12  1  0
  3 13  1  0
  3 14  1  0
  4 15  1  0
  4 16  1  0
  5 17  1  0
  6 18  1  0
  6 19  1  0
  6 20  1  0
A    1
-0.324322
A    2
-0.072492
A    3
-0.131765
A    4
-0.181340
A    5
0.190626
A    6
-0.383660
A    7
-0.250918
A    8
0.093371
A    9
0.097082
A   10
0.097513
A   11
0.065324
A   12
0.060072
A   13
0.069037
A   14
0.066612
A   15
0.086159
A   16
0.087424
A   17
0.074788
A   18
0.121060
A   19
0.116919
A   20
0.118512
M  END
