
     RDKit          3D

 23 22  0  0  0  0  0  0  0  0999 V2000
    2.8900    0.2442    0.4878 C   0  0  0  0  0  0  0  0  0  0  0  0
    1.6189    0.0808   -0.3548 C   0  0  0  0  0  0  0  0  0  0  0  0
    1.7620   -1.3733   -1.3069 Cl  0  0  0  0  0  0  0  0  0  0  0  0
    0.4654    0.0964    0.6001 C   0  0  0  0  0  0  0  0  0  0  0  0
   -0.8737   -0.0517   -0.0317 C   0  0  0  0  0  0  0  0  0  0  0  0
   -1.0626   -1.3186   -0.7936 C   0  0  0  0  0  0  0  0  0  0  0  0
   -1.9126   -0.0374    1.0813 C   0  0  0  0  0  0  0  0  0  0  0  0
   -1.2061    1.1472   -0.9223 C   0  0  0  0  0  0  0  0  0  0  0  0
    3.7153   -0.3654    0.0843 H   0  0  0  0  0  0  0  0  0  0  0  0
    3.2236    1.2817    0.5193 H   0  0  0  0  0  0  0  0  0  0  0  0
    2.7210   -0.1056    1.5316 H   0  0  0  0  0  0  0  0  0  0  0  0
    1.6084    0.9595   -1.0317 H   0  0  0  0  0  0  0  0  0  0  0  0
    0.5743   -0.6575    1.4033 H   0  0  0  0  0  0  0  0  0  0  0  0
    0.4854    1.0883    1.1167 H   0  0  0  0  0  0  0  0  0  0  0  0
   -0.8590   -1.2127   -1.8946 H   0  0  0  0  0  0  0  0  0  0  0  0
   -2.1322   -1.6807   -0.7554 H   0  0  0  0  0  0  0  0  0  0  0  0
   -0.4705   -2.1298   -0.3344 H   0  0  0  0  0  0  0  0  0  0  0  0
   -2.9037    0.2994    0.6778 H   0  0  0  0  0  0  0  0  0  0  0  0
   -2.1029   -1.0808    1.4562 H   0  0  0  0  0  0  0  0  0  0  0  0
   -1.5821    0.5837    1.9310 H   0  0  0  0  0  0  0  0  0  0  0  0
   -2.1120    0.8381   -1.4998 H   0  0  0  0  0  0  0  0  0  0  0  0
   -0.4216    1.3504   -1.6476 H   0  0  0  0  0  0  0  0  0  0  0  0
   -1.4254    2.0440   -0.3167 H   0  0  0  0  0  0  0  0  0  0  0  0
  1  2  1  0
  2  3  1  0
  2  4  1  0
  4  5  1  0
  5  6  1  0
  5  7  1  0
  5  8  1  0
  1  9  1  0
  1 10  1  0
  1 11  1  0
  2 12  1  0
  4 13  1  0
  4 14  1  0
  6 15  1  0
  6 16  1  0
  6 17  1  0
  7 18  1  0
  7 19  1  0
  7 20  1  0
  8 21  1  0
  8 22  1  0
  8 23  1  0
A    1
-0.381736
A    2
0.200174
A    3
-0.250558
A    4
-0.235086
A    5
0.264822
A    6
-0.385641
A    7
-0.380349
A    8
-0.386075
A    9
0.117117
A   10
0.118492
A   11
0.121682
A   12
0.074785
A   13
0.090737
A   14
0.088233
A   15
0.101225
A   16
0.105493
A   17
0.104020
A   18
0.104203
A   19
0.107283
A   20
0.102737
A   21
0.109870
A   22
0.104017
A   23
0.104556
M  END
