
     RDKit          3D

 17 16  0  0  0  0  0  0  0  0999 V2000
   -3.7124    0.7684   -1.1952 Cl  0  0  0  0  0  0  0  0  0  0  0  0
   -2.5202   -0.0502   -0.1367 C   0  0  0  0  0  0  0  0  0  0  0  0
   -1.1504    0.3732   -0.6256 C   0  0  0  0  0  0  0  0  0  0  0  0
   -0.0463   -0.2568    0.1946 C   0  0  0  0  0  0  0  0  0  0  0  0
    1.2801    0.2160   -0.3575 C   0  0  0  0  0  0  0  0  0  0  0  0
    2.4462   -0.3687    0.4079 C   0  0  0  0  0  0  0  0  0  0  0  0
    3.9371    0.2705   -0.3471 Cl  0  0  0  0  0  0  0  0  0  0  0  0
   -2.6493   -1.1608   -0.2050 H   0  0  0  0  0  0  0  0  0  0  0  0
   -2.7165    0.2949    0.9011 H   0  0  0  0  0  0  0  0  0  0  0  0
   -1.1168    1.4595   -0.6327 H   0  0  0  0  0  0  0  0  0  0  0  0
   -1.0772    0.0154   -1.6849 H   0  0  0  0  0  0  0  0  0  0  0  0
   -0.1544    0.0754    1.2472 H   0  0  0  0  0  0  0  0  0  0  0  0
   -0.1033   -1.3508    0.1658 H   0  0  0  0  0  0  0  0  0  0  0  0
    1.3258    1.3234   -0.3300 H   0  0  0  0  0  0  0  0  0  0  0  0
    1.3524   -0.1915   -1.3941 H   0  0  0  0  0  0  0  0  0  0  0  0
    2.4213    0.0437    1.4336 H   0  0  0  0  0  0  0  0  0  0  0  0
    2.4839   -1.4615    0.3550 H   0  0  0  0  0  0  0  0  0  0  0  0
  1  2  1  0
  2  3  1  0
  3  4  1  0
  4  5  1  0
  5  6  1  0
  6  7  1  0
  2  8  1  0
  2  9  1  0
  3 10  1  0
  3 11  1  0
  4 12  1  0
  4 13  1  0
  5 14  1  0
  5 15  1  0
  6 16  1  0
  6 17  1  0
A    1
-0.227748
A    2
-0.025484
A    3
-0.137501
A    4
-0.120120
A    5
-0.139414
A    6
-0.023596
A    7
-0.228313
A    8
0.103343
A    9
0.104235
A   10
0.084030
A   11
0.084068
A   12
0.074991
A   13
0.075073
A   14
0.084352
A   15
0.085026
A   16
0.103719
A   17
0.103339
M  END
