
     RDKit          3D

 26 25  0  0  0  0  0  0  0  0999 V2000
   -2.0610    0.4364   -0.8510 C   0  0  0  0  0  0  0  0  0  0  0  0
   -1.4116    0.0327    0.4128 C   0  0  0  0  0  0  0  0  0  0  0  0
   -0.0511   -0.5457    0.3279 C   0  0  0  0  0  0  0  0  0  0  0  0
   -0.0119   -1.8084   -0.5124 C   0  0  0  0  0  0  0  0  0  0  0  0
    0.3262   -1.0012    1.7487 C   0  0  0  0  0  0  0  0  0  0  0  0
    1.0310    0.3570   -0.1275 C   0  0  0  0  0  0  0  0  0  0  0  0
    1.2260    1.5675    0.7567 C   0  0  0  0  0  0  0  0  0  0  0  0
    0.9137    0.8264   -1.5540 C   0  0  0  0  0  0  0  0  0  0  0  0
    2.5695   -0.5730   -0.0289 Cl  0  0  0  0  0  0  0  0  0  0  0  0
   -1.7021    1.3916   -1.2763 H   0  0  0  0  0  0  0  0  0  0  0  0
   -3.1509    0.6269   -0.6138 H   0  0  0  0  0  0  0  0  0  0  0  0
   -2.0746   -0.3209   -1.6445 H   0  0  0  0  0  0  0  0  0  0  0  0
   -2.0694   -0.7300    0.9125 H   0  0  0  0  0  0  0  0  0  0  0  0
   -1.4000    0.8980    1.1006 H   0  0  0  0  0  0  0  0  0  0  0  0
   -0.7190   -1.8117   -1.3402 H   0  0  0  0  0  0  0  0  0  0  0  0
   -0.2556   -2.7015    0.1209 H   0  0  0  0  0  0  0  0  0  0  0  0
    1.0045   -1.9675   -0.9481 H   0  0  0  0  0  0  0  0  0  0  0  0
    1.4050   -0.8580    1.9390 H   0  0  0  0  0  0  0  0  0  0  0  0
    0.0557   -2.0616    1.9096 H   0  0  0  0  0  0  0  0  0  0  0  0
   -0.2344   -0.4082    2.5064 H   0  0  0  0  0  0  0  0  0  0  0  0
    0.8150    1.4384    1.7697 H   0  0  0  0  0  0  0  0  0  0  0  0
    0.7565    2.4773    0.2856 H   0  0  0  0  0  0  0  0  0  0  0  0
    2.3019    1.8208    0.8725 H   0  0  0  0  0  0  0  0  0  0  0  0
    1.9037    0.7935   -2.0811 H   0  0  0  0  0  0  0  0  0  0  0  0
    0.6217    1.9032   -1.5615 H   0  0  0  0  0  0  0  0  0  0  0  0
    0.2113    0.2181   -2.1236 H   0  0  0  0  0  0  0  0  0  0  0  0
  1  2  1  0
  2  3  1  0
  3  4  1  0
  3  5  1  0
  3  6  1  0
  6  7  1  0
  6  8  1  0
  6  9  1  0
  1 10  1  0
  1 11  1  0
  1 12  1  0
  2 13  1  0
  2 14  1  0
  4 15  1  0
  4 16  1  0
  4 17  1  0
  5 18  1  0
  5 19  1  0
  5 20  1  0
  7 21  1  0
  7 22  1  0
  7 23  1  0
  8 24  1  0
  8 25  1  0
  8 26  1  0
A    1
-0.327762
A    2
-0.118784
A    3
0.147997
A    4
-0.381941
A    5
-0.390750
A    6
0.299531
A    7
-0.411823
A    8
-0.407048
A    9
-0.256454
A   10
0.098583
A   11
0.102934
A   12
0.104324
A   13
0.075776
A   14
0.070773
A   15
0.105930
A   16
0.115523
A   17
0.108277
A   18
0.106809
A   19
0.108573
A   20
0.107571
A   21
0.123044
A   22
0.124435
A   23
0.127203
A   24
0.124619
A   25
0.117987
A   26
0.124671
M  END
