
     RDKit          3D

 23 22  0  0  0  0  0  0  0  0999 V2000
   -3.2654   -0.8564   -0.8835 C   0  0  0  0  0  0  0  0  0  0  0  0
   -2.3662   -0.3118    0.1785 C   0  0  0  0  0  0  0  0  0  0  0  0
   -0.9967    0.0508   -0.3614 C   0  0  0  0  0  0  0  0  0  0  0  0
   -0.1550    0.5909    0.7722 C   0  0  0  0  0  0  0  0  0  0  0  0
    1.2244    0.9880    0.3581 C   0  0  0  0  0  0  0  0  0  0  0  0
    1.9650   -0.1984   -0.2084 C   0  0  0  0  0  0  0  0  0  0  0  0
    3.3791    0.1894   -0.6339 C   0  0  0  0  0  0  0  0  0  0  0  0
    4.1181   -1.3180   -1.2793 Cl  0  0  0  0  0  0  0  0  0  0  0  0
    4.3541    0.7014    0.7374 Cl  0  0  0  0  0  0  0  0  0  0  0  0
   -2.9777   -0.4424   -1.8786 H   0  0  0  0  0  0  0  0  0  0  0  0
   -3.2047   -1.9829   -0.9191 H   0  0  0  0  0  0  0  0  0  0  0  0
   -4.3122   -0.5843   -0.6313 H   0  0  0  0  0  0  0  0  0  0  0  0
   -2.2221   -1.0716    0.9699 H   0  0  0  0  0  0  0  0  0  0  0  0
   -2.8525    0.5666    0.6446 H   0  0  0  0  0  0  0  0  0  0  0  0
   -1.0280    0.7533   -1.1989 H   0  0  0  0  0  0  0  0  0  0  0  0
   -0.5561   -0.9247   -0.7197 H   0  0  0  0  0  0  0  0  0  0  0  0
   -0.1168   -0.1849    1.5760 H   0  0  0  0  0  0  0  0  0  0  0  0
   -0.6939    1.4580    1.2304 H   0  0  0  0  0  0  0  0  0  0  0  0
    1.2330    1.8539   -0.3161 H   0  0  0  0  0  0  0  0  0  0  0  0
    1.7661    1.3236    1.2847 H   0  0  0  0  0  0  0  0  0  0  0  0
    1.4009   -0.5455   -1.0984 H   0  0  0  0  0  0  0  0  0  0  0  0
    1.9917   -0.9928    0.5490 H   0  0  0  0  0  0  0  0  0  0  0  0
    3.3148    0.9378   -1.4413 H   0  0  0  0  0  0  0  0  0  0  0  0
  1  2  1  0
  2  3  1  0
  3  4  1  0
  4  5  1  0
  5  6  1  0
  6  7  1  0
  7  8  1  0
  7  9  1  0
  1 10  1  0
  1 11  1  0
  1 12  1  0
  2 13  1  0
  2 14  1  0
  3 15  1  0
  3 16  1  0
  4 17  1  0
  4 18  1  0
  5 19  1  0
  5 20  1  0
  6 21  1  0
  6 22  1  0
  7 23  1  0
A    1
-0.326974
A    2
-0.073854
A    3
-0.129770
A    4
-0.120092
A    5
-0.120411
A    6
-0.194275
A    7
0.189716
A    8
-0.198902
A    9
-0.183101
A   10
0.095584
A   11
0.095730
A   12
0.095574
A   13
0.060974
A   14
0.059874
A   15
0.066444
A   16
0.066280
A   17
0.070388
A   18
0.066837
A   19
0.074210
A   20
0.065750
A   21
0.097804
A   22
0.100542
A   23
0.141670
M  END
