
     RDKit          3D

 17 16  0  0  0  0  0  0  0  0999 V2000
   -2.4373    0.4666   -0.0047 C   0  0  0  0  0  0  0  0  0  0  0  0
   -1.2699   -0.3356   -0.5811 C   0  0  0  0  0  0  0  0  0  0  0  0
   -0.0413    0.1696    0.1496 C   0  0  0  0  0  0  0  0  0  0  0  0
    1.2179   -0.5196   -0.2976 C   0  0  0  0  0  0  0  0  0  0  0  0
    2.3594    0.0891    0.5189 C   0  0  0  0  0  0  0  0  0  0  0  0
    3.8956   -0.6929    0.0314 Cl  0  0  0  0  0  0  0  0  0  0  0  0
   -3.4097    0.0066   -0.2558 H   0  0  0  0  0  0  0  0  0  0  0  0
   -2.3391    1.4995   -0.3739 H   0  0  0  0  0  0  0  0  0  0  0  0
   -2.3865    0.5074    1.1043 H   0  0  0  0  0  0  0  0  0  0  0  0
   -1.4267   -1.4317   -0.3781 H   0  0  0  0  0  0  0  0  0  0  0  0
   -1.2127   -0.1215   -1.6666 H   0  0  0  0  0  0  0  0  0  0  0  0
   -0.2410    0.0301    1.2287 H   0  0  0  0  0  0  0  0  0  0  0  0
    0.0215    1.2576   -0.0398 H   0  0  0  0  0  0  0  0  0  0  0  0
    1.1824   -1.5919   -0.0149 H   0  0  0  0  0  0  0  0  0  0  0  0
    1.4179   -0.4387   -1.3573 H   0  0  0  0  0  0  0  0  0  0  0  0
    2.1982   -0.0633    1.6032 H   0  0  0  0  0  0  0  0  0  0  0  0
    2.4713    1.1687    0.3337 H   0  0  0  0  0  0  0  0  0  0  0  0
  1  2  1  0
  2  3  1  0
  3  4  1  0
  4  5  1  0
  5  6  1  0
  1  7  1  0
  1  8  1  0
  1  9  1  0
  2 10  1  0
  2 11  1  0
  3 12  1  0
  3 13  1  0
  4 14  1  0
  4 15  1  0
  5 16  1  0
  5 17  1  0
A    1
-0.331414
A    2
-0.070637
A    3
-0.126518
A    4
-0.142709
A    5
-0.024400
A    6
-0.232399
A    7
0.096859
A    8
0.097782
A    9
0.097737
A   10
0.063974
A   11
0.063508
A   12
0.070539
A   13
0.070332
A   14
0.080511
A   15
0.080810
A   16
0.102651
A   17
0.103373
M  END
