
     RDKit          3D

 20 19  0  0  0  0  0  0  0  0999 V2000
   -1.1974    0.8187    1.9470 Cl  0  0  0  0  0  0  0  0  0  0  0  0
   -2.2048    0.8875    0.5090 C   0  0  0  0  0  0  0  0  0  0  0  0
   -1.5169    0.6740   -0.7834 C   0  0  0  0  0  0  0  0  0  0  0  0
   -0.8268   -0.6229   -0.9841 C   0  0  0  0  0  0  0  0  0  0  0  0
    0.2711   -0.9356   -0.0338 C   0  0  0  0  0  0  0  0  0  0  0  0
    1.3889    0.0926   -0.0892 C   0  0  0  0  0  0  0  0  0  0  0  0
    2.4312   -0.3258    0.9111 C   0  0  0  0  0  0  0  0  0  0  0  0
    3.8060    0.7910    0.9558 Cl  0  0  0  0  0  0  0  0  0  0  0  0
   -2.6495    1.9250    0.4808 H   0  0  0  0  0  0  0  0  0  0  0  0
   -3.0855    0.2173    0.6643 H   0  0  0  0  0  0  0  0  0  0  0  0
   -0.7450    1.4798   -0.9590 H   0  0  0  0  0  0  0  0  0  0  0  0
   -2.2732    0.8794   -1.5896 H   0  0  0  0  0  0  0  0  0  0  0  0
   -0.3603   -0.5858   -2.0140 H   0  0  0  0  0  0  0  0  0  0  0  0
   -1.5046   -1.5001   -1.0276 H   0  0  0  0  0  0  0  0  0  0  0  0
    0.7493   -1.8852   -0.4356 H   0  0  0  0  0  0  0  0  0  0  0  0
   -0.0194   -1.1935    0.9835 H   0  0  0  0  0  0  0  0  0  0  0  0
    1.0558    1.1287    0.0228 H   0  0  0  0  0  0  0  0  0  0  0  0
    1.8742   -0.0524   -1.1015 H   0  0  0  0  0  0  0  0  0  0  0  0
    2.8145   -1.3218    0.6096 H   0  0  0  0  0  0  0  0  0  0  0  0
    1.9923   -0.4709    1.9337 H   0  0  0  0  0  0  0  0  0  0  0  0
  1  2  1  0
  2  3  1  0
  3  4  1  0
  4  5  1  0
  5  6  1  0
  6  7  1  0
  7  8  1  0
  2  9  1  0
  2 10  1  0
  3 11  1  0
  3 12  1  0
  4 13  1  0
  4 14  1  0
  5 15  1  0
  5 16  1  0
  6 17  1  0
  6 18  1  0
  7 19  1  0
  7 20  1  0
A    1
-0.202161
A    2
-0.024773
A    3
-0.132674
A    4
-0.120922
A    5
-0.125859
A    6
-0.146235
A    7
-0.022147
A    8
-0.228746
A    9
0.102385
A   10
0.104024
A   11
0.084794
A   12
0.081020
A   13
0.072741
A   14
0.067008
A   15
0.071060
A   16
0.063848
A   17
0.068277
A   18
0.082813
A   19
0.102882
A   20
0.102665
M  END
