
     RDKit          3D

 23 22  0  0  0  0  0  0  0  0999 V2000
   -2.7602    0.5793    0.0981 C   0  0  0  0  0  0  0  0  0  0  0  0
   -2.2996   -0.6321   -0.6759 C   0  0  0  0  0  0  0  0  0  0  0  0
   -1.0550   -1.1701    0.0150 C   0  0  0  0  0  0  0  0  0  0  0  0
    0.0275   -0.0880    0.0152 C   0  0  0  0  0  0  0  0  0  0  0  0
    1.2644   -0.6122    0.6976 C   0  0  0  0  0  0  0  0  0  0  0  0
    0.9885   -1.0828    2.3637 Cl  0  0  0  0  0  0  0  0  0  0  0  0
    2.2890    0.5283    0.6921 C   0  0  0  0  0  0  0  0  0  0  0  0
    2.5614    0.8947   -0.7300 C   0  0  0  0  0  0  0  0  0  0  0  0
   -2.4467    0.4501    1.1543 H   0  0  0  0  0  0  0  0  0  0  0  0
   -3.8758    0.6970    0.0624 H   0  0  0  0  0  0  0  0  0  0  0  0
   -2.2661    1.4691   -0.3805 H   0  0  0  0  0  0  0  0  0  0  0  0
   -1.9883   -0.3504   -1.7202 H   0  0  0  0  0  0  0  0  0  0  0  0
   -3.0538   -1.4125   -0.7789 H   0  0  0  0  0  0  0  0  0  0  0  0
   -0.7041   -2.0233   -0.5843 H   0  0  0  0  0  0  0  0  0  0  0  0
   -1.2376   -1.4215    1.0650 H   0  0  0  0  0  0  0  0  0  0  0  0
    0.2486    0.1471   -1.0452 H   0  0  0  0  0  0  0  0  0  0  0  0
   -0.3546    0.8483    0.4710 H   0  0  0  0  0  0  0  0  0  0  0  0
    1.6436   -1.4634    0.1181 H   0  0  0  0  0  0  0  0  0  0  0  0
    1.8942    1.4071    1.2269 H   0  0  0  0  0  0  0  0  0  0  0  0
    3.2255    0.2089    1.2190 H   0  0  0  0  0  0  0  0  0  0  0  0
    1.7572    1.5165   -1.1425 H   0  0  0  0  0  0  0  0  0  0  0  0
    3.4903    1.5171   -0.7529 H   0  0  0  0  0  0  0  0  0  0  0  0
    2.6515   -0.0074   -1.3878 H   0  0  0  0  0  0  0  0  0  0  0  0
  1  2  1  0
  2  3  1  0
  3  4  1  0
  4  5  1  0
  5  6  1  0
  5  7  1  0
  7  8  1  0
  1  9  1  0
  1 10  1  0
  1 11  1  0
  2 12  1  0
  2 13  1  0
  3 14  1  0
  3 15  1  0
  4 16  1  0
  4 17  1  0
  5 18  1  0
  7 19  1  0
  7 20  1  0
  8 21  1  0
  8 22  1  0
  8 23  1  0
A    1
-0.326065
A    2
-0.071803
A    3
-0.127295
A    4
-0.175619
A    5
0.141478
A    6
-0.258822
A    7
-0.125689
A    8
-0.319998
A    9
0.099761
A   10
0.097097
A   11
0.097608
A   12
0.060486
A   13
0.060191
A   14
0.065657
A   15
0.066584
A   16
0.084604
A   17
0.083689
A   18
0.079589
A   19
0.081803
A   20
0.078269
A   21
0.098677
A   22
0.107157
A   23
0.102641
M  END
