
     RDKit          3D

 29 28  0  0  0  0  0  0  0  0999 V2000
    4.1635   -0.8653   -0.6578 C   0  0  0  0  0  0  0  0  0  0  0  0
    3.0018   -0.6287    0.2807 C   0  0  0  0  0  0  0  0  0  0  0  0
    1.8225   -0.0721   -0.4943 C   0  0  0  0  0  0  0  0  0  0  0  0
    0.6458    0.1692    0.4475 C   0  0  0  0  0  0  0  0  0  0  0  0
   -0.4700    0.7152   -0.3898 C   0  0  0  0  0  0  0  0  0  0  0  0
   -1.7244    1.0148    0.3834 C   0  0  0  0  0  0  0  0  0  0  0  0
   -2.7214    1.5505   -0.6259 C   0  0  0  0  0  0  0  0  0  0  0  0
   -1.4675    2.2948    1.5891 Cl  0  0  0  0  0  0  0  0  0  0  0  0
   -2.2953   -0.2224    1.0454 C   0  0  0  0  0  0  0  0  0  0  0  0
   -2.6508   -1.2888    0.0683 C   0  0  0  0  0  0  0  0  0  0  0  0
    4.7038    0.0664   -0.8884 H   0  0  0  0  0  0  0  0  0  0  0  0
    4.8913   -1.5500   -0.1846 H   0  0  0  0  0  0  0  0  0  0  0  0
    3.7929   -1.2638   -1.6365 H   0  0  0  0  0  0  0  0  0  0  0  0
    3.3338    0.1203    1.0377 H   0  0  0  0  0  0  0  0  0  0  0  0
    2.7245   -1.5399    0.8330 H   0  0  0  0  0  0  0  0  0  0  0  0
    1.5498   -0.8029   -1.2801 H   0  0  0  0  0  0  0  0  0  0  0  0
    2.1336    0.8564   -1.0035 H   0  0  0  0  0  0  0  0  0  0  0  0
    0.3192   -0.8252    0.8254 H   0  0  0  0  0  0  0  0  0  0  0  0
    0.9167    0.7720    1.3067 H   0  0  0  0  0  0  0  0  0  0  0  0
   -0.7055    0.0315   -1.2019 H   0  0  0  0  0  0  0  0  0  0  0  0
   -0.1317    1.6697   -0.8437 H   0  0  0  0  0  0  0  0  0  0  0  0
   -2.8219    0.8374   -1.4797 H   0  0  0  0  0  0  0  0  0  0  0  0
   -3.6961    1.8023   -0.1730 H   0  0  0  0  0  0  0  0  0  0  0  0
   -2.2614    2.4671   -1.0628 H   0  0  0  0  0  0  0  0  0  0  0  0
   -3.2210    0.0794    1.5773 H   0  0  0  0  0  0  0  0  0  0  0  0
   -1.6124   -0.6453    1.7950 H   0  0  0  0  0  0  0  0  0  0  0  0
   -1.7353   -1.5986   -0.4790 H   0  0  0  0  0  0  0  0  0  0  0  0
   -3.0434   -2.1548    0.6322 H   0  0  0  0  0  0  0  0  0  0  0  0
   -3.4412   -0.9891   -0.6514 H   0  0  0  0  0  0  0  0  0  0  0  0
  1  2  1  0
  2  3  1  0
  3  4  1  0
  4  5  1  0
  5  6  1  0
  6  7  1  0
  6  8  1  0
  6  9  1  0
  9 10  1  0
  1 11  1  0
  1 12  1  0
  1 13  1  0
  2 14  1  0
  2 15  1  0
  3 16  1  0
  3 17  1  0
  4 18  1  0
  4 19  1  0
  5 20  1  0
  5 21  1  0
  7 22  1  0
  7 23  1  0
  7 24  1  0
  9 25  1  0
  9 26  1  0
 10 27  1  0
 10 28  1  0
 10 29  1  0
A    1
-0.328933
A    2
-0.074140
A    3
-0.121211
A    4
-0.131391
A    5
-0.205335
A    6
0.300099
A    7
-0.408093
A    8
-0.273264
A    9
-0.155597
A   10
-0.316997
A   11
0.096182
A   12
0.093899
A   13
0.095865
A   14
0.064583
A   15
0.061404
A   16
0.065440
A   17
0.068831
A   18
0.069778
A   19
0.067645
A   20
0.087316
A   21
0.090904
A   22
0.120324
A   23
0.122151
A   24
0.125452
A   25
0.086297
A   26
0.083958
A   27
0.102799
A   28
0.108329
A   29
0.103705
M  END
