
     RDKit          3D

 17 16  0  0  0  0  0  0  0  0999 V2000
   -1.1309   -1.0279   -0.4388 C   0  0  0  0  0  0  0  0  0  0  0  0
   -0.5011    0.1334    0.2750 C   0  0  0  0  0  0  0  0  0  0  0  0
   -1.3027    1.3779   -0.1199 C   0  0  0  0  0  0  0  0  0  0  0  0
    0.9162    0.3806   -0.1501 C   0  0  0  0  0  0  0  0  0  0  0  0
    1.8321   -0.7787    0.0952 C   0  0  0  0  0  0  0  0  0  0  0  0
    3.4622   -0.2910   -0.4739 Cl  0  0  0  0  0  0  0  0  0  0  0  0
   -2.2256   -1.0120   -0.2031 H   0  0  0  0  0  0  0  0  0  0  0  0
   -0.7566   -2.0062   -0.0630 H   0  0  0  0  0  0  0  0  0  0  0  0
   -1.0161   -0.9627   -1.5272 H   0  0  0  0  0  0  0  0  0  0  0  0
   -0.5830   -0.0211    1.3682 H   0  0  0  0  0  0  0  0  0  0  0  0
   -0.8939    1.6906   -1.1052 H   0  0  0  0  0  0  0  0  0  0  0  0
   -2.3756    1.1667   -0.1824 H   0  0  0  0  0  0  0  0  0  0  0  0
   -1.0304    2.1723    0.5971 H   0  0  0  0  0  0  0  0  0  0  0  0
    0.9209    0.5845   -1.2406 H   0  0  0  0  0  0  0  0  0  0  0  0
    1.2802    1.2836    0.3780 H   0  0  0  0  0  0  0  0  0  0  0  0
    1.8969   -1.0783    1.1512 H   0  0  0  0  0  0  0  0  0  0  0  0
    1.5074   -1.6115   -0.5639 H   0  0  0  0  0  0  0  0  0  0  0  0
  1  2  1  0
  2  3  1  0
  2  4  1  0
  4  5  1  0
  5  6  1  0
  1  7  1  0
  1  8  1  0
  1  9  1  0
  2 10  1  0
  3 11  1  0
  3 12  1  0
  3 13  1  0
  4 14  1  0
  4 15  1  0
  5 16  1  0
  5 17  1  0
A    1
-0.367330
A    2
0.131583
A    3
-0.361781
A    4
-0.176936
A    5
-0.021843
A    6
-0.229367
A    7
0.104096
A    8
0.100755
A    9
0.105720
A   10
0.040373
A   11
0.103939
A   12
0.101081
A   13
0.101065
A   14
0.084043
A   15
0.080299
A   16
0.102071
A   17
0.102231
M  END
