
     RDKit          3D

 14 13  0  0  0  0  0  0  0  0999 V2000
   -1.8797   -0.1372    0.1761 C   0  0  0  0  0  0  0  0  0  0  0  0
   -0.4296   -0.5951    0.1907 C   0  0  0  0  0  0  0  0  0  0  0  0
    0.4668    0.5783   -0.0929 C   0  0  0  0  0  0  0  0  0  0  0  0
    1.9031    0.0689   -0.0672 C   0  0  0  0  0  0  0  0  0  0  0  0
    0.0989    1.3148   -1.6800 Cl  0  0  0  0  0  0  0  0  0  0  0  0
   -2.0615    0.6986    0.8774 H   0  0  0  0  0  0  0  0  0  0  0  0
   -2.0826    0.2571   -0.8428 H   0  0  0  0  0  0  0  0  0  0  0  0
   -2.5604   -0.9931    0.3494 H   0  0  0  0  0  0  0  0  0  0  0  0
   -0.3129   -1.3801   -0.5637 H   0  0  0  0  0  0  0  0  0  0  0  0
   -0.1840   -0.9724    1.1899 H   0  0  0  0  0  0  0  0  0  0  0  0
    0.3171    1.3595    0.6815 H   0  0  0  0  0  0  0  0  0  0  0  0
    1.9020   -0.9916   -0.4040 H   0  0  0  0  0  0  0  0  0  0  0  0
    2.5247    0.6393   -0.7916 H   0  0  0  0  0  0  0  0  0  0  0  0
    2.2982    0.1530    0.9773 H   0  0  0  0  0  0  0  0  0  0  0  0
  1  2  1  0
  2  3  1  0
  3  4  1  0
  3  5  1  0
  1  6  1  0
  1  7  1  0
  1  8  1  0
  2  9  1  0
  2 10  1  0
  3 11  1  0
  4 12  1  0
  4 13  1  0
  4 14  1  0
A    1
-0.325226
A    2
-0.128013
A    3
0.186776
A    4
-0.386609
A    5
-0.251935
A    6
0.101114
A    7
0.097700
A    8
0.103613
A    9
0.083696
A   10
0.083534
A   11
0.076732
A   12
0.121163
A   13
0.118146
A   14
0.119309
M  END
