
     RDKit          3D

 20 19  0  0  0  0  0  0  0  0999 V2000
   -2.1635   -0.4319   -0.3795 C   0  0  0  0  0  0  0  0  0  0  0  0
   -1.3327    0.8022   -0.3882 C   0  0  0  0  0  0  0  0  0  0  0  0
    0.0878    0.5880    0.0623 C   0  0  0  0  0  0  0  0  0  0  0  0
    0.1129    0.0566    1.4773 C   0  0  0  0  0  0  0  0  0  0  0  0
    0.8530   -0.3531   -0.8262 C   0  0  0  0  0  0  0  0  0  0  0  0
    2.2550   -0.4797   -0.2655 C   0  0  0  0  0  0  0  0  0  0  0  0
    3.0606    1.1122   -0.2324 Cl  0  0  0  0  0  0  0  0  0  0  0  0
   -3.0064   -0.2882    0.3348 H   0  0  0  0  0  0  0  0  0  0  0  0
   -1.5763   -1.3443   -0.0684 H   0  0  0  0  0  0  0  0  0  0  0  0
   -2.6614   -0.6154   -1.3722 H   0  0  0  0  0  0  0  0  0  0  0  0
   -1.3003    1.2104   -1.4372 H   0  0  0  0  0  0  0  0  0  0  0  0
   -1.7548    1.6072    0.2607 H   0  0  0  0  0  0  0  0  0  0  0  0
    0.6358    1.5523    0.0705 H   0  0  0  0  0  0  0  0  0  0  0  0
    1.0699    0.3122    1.9917 H   0  0  0  0  0  0  0  0  0  0  0  0
   -0.6691    0.6473    2.0388 H   0  0  0  0  0  0  0  0  0  0  0  0
   -0.1127   -1.0289    1.5083 H   0  0  0  0  0  0  0  0  0  0  0  0
    0.4128   -1.3788   -0.8076 H   0  0  0  0  0  0  0  0  0  0  0  0
    0.9610    0.0448   -1.8559 H   0  0  0  0  0  0  0  0  0  0  0  0
    2.8753   -1.1764   -0.9024 H   0  0  0  0  0  0  0  0  0  0  0  0
    2.2532   -0.8366    0.7911 H   0  0  0  0  0  0  0  0  0  0  0  0
  1  2  1  0
  2  3  1  0
  3  4  1  0
  3  5  1  0
  5  6  1  0
  6  7  1  0
  1  8  1  0
  1  9  1  0
  1 10  1  0
  2 11  1  0
  2 12  1  0
  3 13  1  0
  4 14  1  0
  4 15  1  0
  4 16  1  0
  5 17  1  0
  5 18  1  0
  6 19  1  0
  6 20  1  0
A    1
-0.324037
A    2
-0.107683
A    3
0.071627
A    4
-0.363039
A    5
-0.168700
A    6
-0.023659
A    7
-0.223281
A    8
0.097615
A    9
0.096576
A   10
0.099525
A   11
0.061763
A   12
0.063200
A   13
0.038911
A   14
0.101700
A   15
0.105982
A   16
0.100344
A   17
0.086113
A   18
0.080531
A   19
0.103604
A   20
0.102907
M  END
