
     RDKit          3D

 29 28  0  0  0  0  0  0  0  0999 V2000
    3.7628    1.3466    0.4027 C   0  0  0  0  0  0  0  0  0  0  0  0
    2.5040    0.4262    0.5028 C   0  0  0  0  0  0  0  0  0  0  0  0
    2.2893   -0.2768   -0.7726 C   0  0  0  0  0  0  0  0  0  0  0  0
    1.2523   -1.2788   -0.9546 C   0  0  0  0  0  0  0  0  0  0  0  0
   -0.1796   -1.0306   -0.7608 C   0  0  0  0  0  0  0  0  0  0  0  0
   -0.5947   -0.7241    0.6382 C   0  0  0  0  0  0  0  0  0  0  0  0
   -2.1101   -0.5202    0.7474 C   0  0  0  0  0  0  0  0  0  0  0  0
   -2.6047    0.6214   -0.1037 C   0  0  0  0  0  0  0  0  0  0  0  0
   -4.1082    0.7281    0.1128 C   0  0  0  0  0  0  0  0  0  0  0  0
   -4.7194    2.0740   -0.8849 Cl  0  0  0  0  0  0  0  0  0  0  0  0
    4.0215    1.7050    1.4177 H   0  0  0  0  0  0  0  0  0  0  0  0
    4.5857    0.7936   -0.0940 H   0  0  0  0  0  0  0  0  0  0  0  0
    3.5315    2.2196   -0.2416 H   0  0  0  0  0  0  0  0  0  0  0  0
    1.6912    1.2220    0.5943 H   0  0  0  0  0  0  0  0  0  0  0  0
    2.6284   -0.1550    1.4077 H   0  0  0  0  0  0  0  0  0  0  0  0
    2.1928    0.5079   -1.5906 H   0  0  0  0  0  0  0  0  0  0  0  0
    3.2793   -0.7897   -1.0232 H   0  0  0  0  0  0  0  0  0  0  0  0
    1.3523   -1.6392   -2.0499 H   0  0  0  0  0  0  0  0  0  0  0  0
    1.5196   -2.2608   -0.4258 H   0  0  0  0  0  0  0  0  0  0  0  0
   -0.5576   -0.1876   -1.4144 H   0  0  0  0  0  0  0  0  0  0  0  0
   -0.8078   -1.9156   -1.1114 H   0  0  0  0  0  0  0  0  0  0  0  0
   -0.0579    0.1173    1.0387 H   0  0  0  0  0  0  0  0  0  0  0  0
   -0.4185   -1.6617    1.2641 H   0  0  0  0  0  0  0  0  0  0  0  0
   -2.5712   -1.4532    0.3094 H   0  0  0  0  0  0  0  0  0  0  0  0
   -2.4221   -0.4541    1.7940 H   0  0  0  0  0  0  0  0  0  0  0  0
   -2.4512    0.3147   -1.1739 H   0  0  0  0  0  0  0  0  0  0  0  0
   -2.1140    1.5762    0.1283 H   0  0  0  0  0  0  0  0  0  0  0  0
   -4.5892   -0.2108   -0.1863 H   0  0  0  0  0  0  0  0  0  0  0  0
   -4.3043    0.9057    1.1989 H   0  0  0  0  0  0  0  0  0  0  0  0
  1  2  1  0
  2  3  1  0
  3  4  1  0
  4  5  1  0
  5  6  1  0
  6  7  1  0
  7  8  1  0
  8  9  1  0
  9 10  1  0
  1 11  1  0
  1 12  1  0
  1 13  1  0
  2 14  1  0
  2 15  1  0
  3 16  1  0
  3 17  1  0
  4 18  1  0
  4 19  1  0
  5 20  1  0
  5 21  1  0
  6 22  1  0
  6 23  1  0
  7 24  1  0
  7 25  1  0
  8 26  1  0
  8 27  1  0
  9 28  1  0
  9 29  1  0
A    1
-0.326857
A    2
-0.074940
A    3
-0.119565
A    4
-0.123418
A    5
-0.117609
A    6
-0.124793
A    7
-0.123601
A    8
-0.139051
A    9
-0.023398
A   10
-0.231988
A   11
0.093588
A   12
0.095536
A   13
0.095845
A   14
0.059288
A   15
0.060880
A   16
0.063558
A   17
0.059196
A   18
0.056744
A   19
0.063575
A   20
0.064601
A   21
0.060609
A   22
0.065624
A   23
0.065158
A   24
0.068113
A   25
0.066504
A   26
0.079042
A   27
0.082024
A   28
0.102877
A   29
0.102458
M  END
