
     RDKit          3D

 26 25  0  0  0  0  0  0  0  0999 V2000
    2.7160   -0.6073   -0.5048 C   0  0  0  0  0  0  0  0  0  0  0  0
    1.2552   -0.5332   -0.8991 C   0  0  0  0  0  0  0  0  0  0  0  0
    0.4829   -0.0142    0.2688 C   0  0  0  0  0  0  0  0  0  0  0  0
    0.9530    1.3531    0.6749 C   0  0  0  0  0  0  0  0  0  0  0  0
    0.8130   -1.1152    1.6507 Cl  0  0  0  0  0  0  0  0  0  0  0  0
   -0.9985   -0.0071    0.0726 C   0  0  0  0  0  0  0  0  0  0  0  0
   -1.4897   -1.4362   -0.1880 C   0  0  0  0  0  0  0  0  0  0  0  0
   -1.6235    0.4336    1.3910 C   0  0  0  0  0  0  0  0  0  0  0  0
   -1.4652    0.8308   -1.0695 C   0  0  0  0  0  0  0  0  0  0  0  0
    2.8972   -1.5828    0.0356 H   0  0  0  0  0  0  0  0  0  0  0  0
    3.3704   -0.5915   -1.4087 H   0  0  0  0  0  0  0  0  0  0  0  0
    2.9466    0.2114    0.1952 H   0  0  0  0  0  0  0  0  0  0  0  0
    1.2053    0.1226   -1.7924 H   0  0  0  0  0  0  0  0  0  0  0  0
    0.9255   -1.5503   -1.1562 H   0  0  0  0  0  0  0  0  0  0  0  0
    1.6842    1.7933   -0.0621 H   0  0  0  0  0  0  0  0  0  0  0  0
    0.1055    2.0898    0.7554 H   0  0  0  0  0  0  0  0  0  0  0  0
    1.4649    1.3700    1.6590 H   0  0  0  0  0  0  0  0  0  0  0  0
   -2.4566   -1.5897    0.3425 H   0  0  0  0  0  0  0  0  0  0  0  0
   -1.7197   -1.5674   -1.2754 H   0  0  0  0  0  0  0  0  0  0  0  0
   -0.7869   -2.1834    0.1910 H   0  0  0  0  0  0  0  0  0  0  0  0
   -2.4901    1.0963    1.2144 H   0  0  0  0  0  0  0  0  0  0  0  0
   -0.8919    0.8927    2.0720 H   0  0  0  0  0  0  0  0  0  0  0  0
   -2.0412   -0.4507    1.9524 H   0  0  0  0  0  0  0  0  0  0  0  0
   -2.5510    1.0632   -0.8997 H   0  0  0  0  0  0  0  0  0  0  0  0
   -1.4264    0.2251   -2.0038 H   0  0  0  0  0  0  0  0  0  0  0  0
   -0.8792    1.7472   -1.2158 H   0  0  0  0  0  0  0  0  0  0  0  0
  1  2  1  0
  2  3  1  0
  3  4  1  0
  3  5  1  0
  3  6  1  0
  6  7  1  0
  6  8  1  0
  6  9  1  0
  1 10  1  0
  1 11  1  0
  1 12  1  0
  2 13  1  0
  2 14  1  0
  4 15  1  0
  4 16  1  0
  4 17  1  0
  7 18  1  0
  7 19  1  0
  7 20  1  0
  8 21  1  0
  8 22  1  0
  8 23  1  0
  9 24  1  0
  9 25  1  0
  9 26  1  0
A    1
-0.321001
A    2
-0.149306
A    3
0.236982
A    4
-0.405199
A    5
-0.239281
A    6
0.202719
A    7
-0.384915
A    8
-0.384551
A    9
-0.380060
A   10
0.097335
A   11
0.105270
A   12
0.102576
A   13
0.084461
A   14
0.088080
A   15
0.123224
A   16
0.124591
A   17
0.124319
A   18
0.113370
A   19
0.105477
A   20
0.103243
A   21
0.110936
A   22
0.106846
A   23
0.104362
A   24
0.115034
A   25
0.105157
A   26
0.110331
M  END
