
     RDKit          3D

 32 31  0  0  0  0  0  0  0  0999 V2000
    4.3232   -0.0908    1.5069 C   0  0  0  0  0  0  0  0  0  0  0  0
    4.1272    0.4006    0.1170 C   0  0  0  0  0  0  0  0  0  0  0  0
    2.6759    0.5153   -0.2849 C   0  0  0  0  0  0  0  0  0  0  0  0
    1.9310   -0.7590   -0.2280 C   0  0  0  0  0  0  0  0  0  0  0  0
    0.5020   -0.5400   -0.6640 C   0  0  0  0  0  0  0  0  0  0  0  0
   -0.2627    0.4195    0.1653 C   0  0  0  0  0  0  0  0  0  0  0  0
   -1.7029    0.6371   -0.2813 C   0  0  0  0  0  0  0  0  0  0  0  0
   -2.4803   -0.6343   -0.2360 C   0  0  0  0  0  0  0  0  0  0  0  0
   -3.9002   -0.5749   -0.6548 C   0  0  0  0  0  0  0  0  0  0  0  0
   -4.8132    0.3234    0.1005 C   0  0  0  0  0  0  0  0  0  0  0  0
   -6.4703    0.1524   -0.6155 Cl  0  0  0  0  0  0  0  0  0  0  0  0
   -4.9426   -0.0309    1.8172 Cl  0  0  0  0  0  0  0  0  0  0  0  0
   -4.4243    2.0601   -0.1025 Cl  0  0  0  0  0  0  0  0  0  0  0  0
    5.3984   -0.3497    1.6309 H   0  0  0  0  0  0  0  0  0  0  0  0
    3.7601   -1.0147    1.7422 H   0  0  0  0  0  0  0  0  0  0  0  0
    4.1229    0.7209    2.2405 H   0  0  0  0  0  0  0  0  0  0  0  0
    4.6922   -0.1812   -0.6389 H   0  0  0  0  0  0  0  0  0  0  0  0
    4.5463    1.4391    0.0634 H   0  0  0  0  0  0  0  0  0  0  0  0
    2.6549    0.8950   -1.3261 H   0  0  0  0  0  0  0  0  0  0  0  0
    2.1698    1.3087    0.3402 H   0  0  0  0  0  0  0  0  0  0  0  0
    2.3831   -1.4606   -0.9859 H   0  0  0  0  0  0  0  0  0  0  0  0
    1.8889   -1.2326    0.7717 H   0  0  0  0  0  0  0  0  0  0  0  0
   -0.0485   -1.5069   -0.7279 H   0  0  0  0  0  0  0  0  0  0  0  0
    0.4654   -0.1566   -1.7292 H   0  0  0  0  0  0  0  0  0  0  0  0
   -0.2626    0.0791    1.2250 H   0  0  0  0  0  0  0  0  0  0  0  0
    0.2161    1.4369    0.1166 H   0  0  0  0  0  0  0  0  0  0  0  0
   -2.1524    1.3561    0.4629 H   0  0  0  0  0  0  0  0  0  0  0  0
   -1.7267    1.1311   -1.2664 H   0  0  0  0  0  0  0  0  0  0  0  0
   -1.9792   -1.3341   -0.9742 H   0  0  0  0  0  0  0  0  0  0  0  0
   -2.4270   -1.0691    0.7866 H   0  0  0  0  0  0  0  0  0  0  0  0
   -4.2872   -1.6330   -0.6243 H   0  0  0  0  0  0  0  0  0  0  0  0
   -3.9770   -0.3069   -1.7468 H   0  0  0  0  0  0  0  0  0  0  0  0
  1  2  1  0
  2  3  1  0
  3  4  1  0
  4  5  1  0
  5  6  1  0
  6  7  1  0
  7  8  1  0
  8  9  1  0
  9 10  1  0
 10 11  1  0
 10 12  1  0
 10 13  1  0
  1 14  1  0
  1 15  1  0
  1 16  1  0
  2 17  1  0
  2 18  1  0
  3 19  1  0
  3 20  1  0
  4 21  1  0
  4 22  1  0
  5 23  1  0
  5 24  1  0
  6 25  1  0
  6 26  1  0
  7 27  1  0
  7 28  1  0
  8 29  1  0
  8 30  1  0
  9 31  1  0
  9 32  1  0
A    1
-0.325751
A    2
-0.070462
A    3
-0.131086
A    4
-0.119049
A    5
-0.129751
A    6
-0.114391
A    7
-0.137708
A    8
-0.110197
A    9
-0.246121
A   10
0.355352
A   11
-0.162230
A   12
-0.121173
A   13
-0.133961
A   14
0.096164
A   15
0.094544
A   16
0.096441
A   17
0.058450
A   18
0.055307
A   19
0.061600
A   20
0.064238
A   21
0.059459
A   22
0.062941
A   23
0.060400
A   24
0.066783
A   25
0.067223
A   26
0.064798
A   27
0.059691
A   28
0.071486
A   29
0.083047
A   30
0.070173
A   31
0.122881
A   32
0.130903
M  END
