
     RDKit          3D

 20 19  0  0  0  0  0  0  0  0999 V2000
    1.7858    0.9142   -0.4523 C   0  0  0  0  0  0  0  0  0  0  0  0
    1.2802   -0.3539    0.1554 C   0  0  0  0  0  0  0  0  0  0  0  0
   -0.1192   -0.6734   -0.2212 C   0  0  0  0  0  0  0  0  0  0  0  0
   -0.4180   -2.0242    0.4919 C   0  0  0  0  0  0  0  0  0  0  0  0
   -1.1703    0.2414    0.2663 C   0  0  0  0  0  0  0  0  0  0  0  0
   -1.1316    1.6650   -0.1480 C   0  0  0  0  0  0  0  0  0  0  0  0
   -2.7705   -0.3802   -0.2510 Cl  0  0  0  0  0  0  0  0  0  0  0  0
    1.1136    1.2647   -1.2526 H   0  0  0  0  0  0  0  0  0  0  0  0
    2.8050    0.7077   -0.8810 H   0  0  0  0  0  0  0  0  0  0  0  0
    1.9045    1.7083    0.3426 H   0  0  0  0  0  0  0  0  0  0  0  0
    1.9997   -1.1708   -0.1363 H   0  0  0  0  0  0  0  0  0  0  0  0
    1.3973   -0.3094    1.2757 H   0  0  0  0  0  0  0  0  0  0  0  0
   -0.2274   -0.9314   -1.3014 H   0  0  0  0  0  0  0  0  0  0  0  0
    0.1950   -2.8265    0.0681 H   0  0  0  0  0  0  0  0  0  0  0  0
   -0.2551   -1.8751    1.5681 H   0  0  0  0  0  0  0  0  0  0  0  0
   -1.4944   -2.2598    0.3614 H   0  0  0  0  0  0  0  0  0  0  0  0
   -1.1851    0.1894    1.3851 H   0  0  0  0  0  0  0  0  0  0  0  0
   -0.3646    2.2953    0.3031 H   0  0  0  0  0  0  0  0  0  0  0  0
   -2.1589    2.0791    0.1471 H   0  0  0  0  0  0  0  0  0  0  0  0
   -1.1859    1.7396   -1.2754 H   0  0  0  0  0  0  0  0  0  0  0  0
  1  2  1  0
  2  3  1  0
  3  4  1  0
  3  5  1  0
  5  6  1  0
  5  7  1  0
  1  8  1  0
  1  9  1  0
  1 10  1  0
  2 11  1  0
  2 12  1  0
  3 13  1  0
  4 14  1  0
  4 15  1  0
  4 16  1  0
  5 17  1  0
  6 18  1  0
  6 19  1  0
  6 20  1  0
A    1
-0.330903
A    2
-0.102863
A    3
0.031103
A    4
-0.369677
A    5
0.150292
A    6
-0.382712
A    7
-0.251549
A    8
0.102075
A    9
0.099264
A   10
0.098027
A   11
0.073658
A   12
0.067532
A   13
0.060813
A   14
0.106491
A   15
0.107396
A   16
0.099168
A   17
0.080966
A   18
0.120191
A   19
0.120571
A   20
0.120156
M  END
