
     RDKit          3D

 23 22  0  0  0  0  0  0  0  0999 V2000
    2.5585    0.0752    0.7057 C   0  0  0  0  0  0  0  0  0  0  0  0
    1.3328   -0.7849    0.7995 C   0  0  0  0  0  0  0  0  0  0  0  0
    0.2565   -0.3105   -0.2017 C   0  0  0  0  0  0  0  0  0  0  0  0
    0.9585   -0.4323   -1.8009 Cl  0  0  0  0  0  0  0  0  0  0  0  0
   -0.8962   -1.2618    0.0270 C   0  0  0  0  0  0  0  0  0  0  0  0
   -2.0891   -1.0328   -0.8222 C   0  0  0  0  0  0  0  0  0  0  0  0
   -0.0370    1.0872    0.2217 C   0  0  0  0  0  0  0  0  0  0  0  0
   -1.0549    1.8316   -0.5677 C   0  0  0  0  0  0  0  0  0  0  0  0
    2.7711    0.3673   -0.3279 H   0  0  0  0  0  0  0  0  0  0  0  0
    3.4234   -0.5597    1.0342 H   0  0  0  0  0  0  0  0  0  0  0  0
    2.5140    0.9482    1.4100 H   0  0  0  0  0  0  0  0  0  0  0  0
    0.9454   -0.7123    1.8380 H   0  0  0  0  0  0  0  0  0  0  0  0
    1.6046   -1.8268    0.6202 H   0  0  0  0  0  0  0  0  0  0  0  0
   -1.1472   -1.1611    1.1257 H   0  0  0  0  0  0  0  0  0  0  0  0
   -0.5856   -2.3221   -0.0824 H   0  0  0  0  0  0  0  0  0  0  0  0
   -2.5041   -1.9871   -1.2668 H   0  0  0  0  0  0  0  0  0  0  0  0
   -1.9627   -0.3581   -1.6682 H   0  0  0  0  0  0  0  0  0  0  0  0
   -2.9082   -0.6147   -0.1657 H   0  0  0  0  0  0  0  0  0  0  0  0
    0.9308    1.6585    0.1365 H   0  0  0  0  0  0  0  0  0  0  0  0
   -0.2611    1.0731    1.3075 H   0  0  0  0  0  0  0  0  0  0  0  0
   -0.8567    1.7646   -1.6564 H   0  0  0  0  0  0  0  0  0  0  0  0
   -2.0937    1.6306   -0.3351 H   0  0  0  0  0  0  0  0  0  0  0  0
   -0.8990    2.9279   -0.3310 H   0  0  0  0  0  0  0  0  0  0  0  0
  1  2  1  0
  2  3  1  0
  3  4  1  0
  3  5  1  0
  5  6  1  0
  3  7  1  0
  7  8  1  0
  1  9  1  0
  1 10  1  0
  1 11  1  0
  2 12  1  0
  2 13  1  0
  5 14  1  0
  5 15  1  0
  6 16  1  0
  6 17  1  0
  6 18  1  0
  7 19  1  0
  7 20  1  0
  8 21  1  0
  8 22  1  0
  8 23  1  0
A    1
-0.322185
A    2
-0.158324
A    3
0.230712
A    4
-0.225717
A    5
-0.140362
A    6
-0.327678
A    7
-0.146638
A    8
-0.322675
A    9
0.096885
A   10
0.104930
A   11
0.099744
A   12
0.085567
A   13
0.081117
A   14
0.082371
A   15
0.080045
A   16
0.101502
A   17
0.099164
A   18
0.101542
A   19
0.083360
A   20
0.085643
A   21
0.099453
A   22
0.105391
A   23
0.106152
M  END
