
     RDKit          3D

 29 28  0  0  0  0  0  0  0  0999 V2000
    3.7407    1.5301   -0.5755 C   0  0  0  0  0  0  0  0  0  0  0  0
    2.6106    0.7214    0.0567 C   0  0  0  0  0  0  0  0  0  0  0  0
    2.4248   -0.4900   -0.7975 C   0  0  0  0  0  0  0  0  0  0  0  0
    1.3466   -1.4284   -0.3331 C   0  0  0  0  0  0  0  0  0  0  0  0
    0.0309   -0.6333   -0.3363 C   0  0  0  0  0  0  0  0  0  0  0  0
   -1.1129   -1.4698    0.1035 C   0  0  0  0  0  0  0  0  0  0  0  0
   -2.4042   -0.7326    0.0586 C   0  0  0  0  0  0  0  0  0  0  0  0
   -2.5443    0.4932    0.8786 C   0  0  0  0  0  0  0  0  0  0  0  0
   -4.0008    0.9799    0.6349 C   0  0  0  0  0  0  0  0  0  0  0  0
   -1.5581    1.8725    0.3005 Cl  0  0  0  0  0  0  0  0  0  0  0  0
    4.4677    0.8145   -0.9845 H   0  0  0  0  0  0  0  0  0  0  0  0
    4.1684    2.1487    0.2372 H   0  0  0  0  0  0  0  0  0  0  0  0
    3.3031    2.1905   -1.3306 H   0  0  0  0  0  0  0  0  0  0  0  0
    2.8677    0.4113    1.0774 H   0  0  0  0  0  0  0  0  0  0  0  0
    1.7246    1.3911    0.0661 H   0  0  0  0  0  0  0  0  0  0  0  0
    2.1158   -0.1497   -1.8298 H   0  0  0  0  0  0  0  0  0  0  0  0
    3.4002   -0.9896   -0.9427 H   0  0  0  0  0  0  0  0  0  0  0  0
    1.2642   -2.2299   -1.0952 H   0  0  0  0  0  0  0  0  0  0  0  0
    1.5443   -1.8654    0.6547 H   0  0  0  0  0  0  0  0  0  0  0  0
   -0.0452   -0.1603   -1.3082 H   0  0  0  0  0  0  0  0  0  0  0  0
    0.1536    0.1769    0.4480 H   0  0  0  0  0  0  0  0  0  0  0  0
   -0.9756   -1.8333    1.1672 H   0  0  0  0  0  0  0  0  0  0  0  0
   -1.2350   -2.4012   -0.5297 H   0  0  0  0  0  0  0  0  0  0  0  0
   -2.7084   -0.5073   -0.9941 H   0  0  0  0  0  0  0  0  0  0  0  0
   -3.1792   -1.4676    0.4528 H   0  0  0  0  0  0  0  0  0  0  0  0
   -2.3869    0.3502    1.9557 H   0  0  0  0  0  0  0  0  0  0  0  0
   -4.0703    1.4765   -0.3417 H   0  0  0  0  0  0  0  0  0  0  0  0
   -4.6874    0.1269    0.6383 H   0  0  0  0  0  0  0  0  0  0  0  0
   -4.2548    1.6744    1.4379 H   0  0  0  0  0  0  0  0  0  0  0  0
  1  2  1  0
  2  3  1  0
  3  4  1  0
  4  5  1  0
  5  6  1  0
  6  7  1  0
  7  8  1  0
  8  9  1  0
  8 10  1  0
  1 11  1  0
  1 12  1  0
  1 13  1  0
  2 14  1  0
  2 15  1  0
  3 16  1  0
  3 17  1  0
  4 18  1  0
  4 19  1  0
  5 20  1  0
  5 21  1  0
  6 22  1  0
  6 23  1  0
  7 24  1  0
  7 25  1  0
  8 26  1  0
  9 27  1  0
  9 28  1  0
  9 29  1  0
A    1
-0.326332
A    2
-0.074076
A    3
-0.124189
A    4
-0.126441
A    5
-0.133563
A    6
-0.121238
A    7
-0.176393
A    8
0.193923
A    9
-0.382336
A   10
-0.248630
A   11
0.094830
A   12
0.092937
A   13
0.096050
A   14
0.060485
A   15
0.062660
A   16
0.066082
A   17
0.060396
A   18
0.058545
A   19
0.063608
A   20
0.067347
A   21
0.059457
A   22
0.067648
A   23
0.068141
A   24
0.087796
A   25
0.081984
A   26
0.076721
A   27
0.121253
A   28
0.117408
A   29
0.115925
M  END
