
     RDKit          3D

 23 22  0  0  0  0  0  0  0  0999 V2000
   -2.8950    0.0944   -0.2825 C   0  0  0  0  0  0  0  0  0  0  0  0
   -2.0684   -0.9560    0.4019 C   0  0  0  0  0  0  0  0  0  0  0  0
   -0.6621   -1.0347   -0.1888 C   0  0  0  0  0  0  0  0  0  0  0  0
   -0.0134    0.3050   -0.0052 C   0  0  0  0  0  0  0  0  0  0  0  0
    1.3939    0.3454   -0.5569 C   0  0  0  0  0  0  0  0  0  0  0  0
    2.2828   -0.6709    0.1242 C   0  0  0  0  0  0  0  0  0  0  0  0
    2.0013    1.7184   -0.3763 C   0  0  0  0  0  0  0  0  0  0  0  0
    1.3112   -0.0083   -2.2989 Cl  0  0  0  0  0  0  0  0  0  0  0  0
   -2.9755    1.0281    0.3307 H   0  0  0  0  0  0  0  0  0  0  0  0
   -3.9391   -0.2858   -0.4037 H   0  0  0  0  0  0  0  0  0  0  0  0
   -2.4818    0.4024   -1.2588 H   0  0  0  0  0  0  0  0  0  0  0  0
   -2.5320   -1.9691    0.2613 H   0  0  0  0  0  0  0  0  0  0  0  0
   -2.0152   -0.7204    1.4713 H   0  0  0  0  0  0  0  0  0  0  0  0
   -0.1097   -1.8761    0.2312 H   0  0  0  0  0  0  0  0  0  0  0  0
   -0.8155   -1.2713   -1.2811 H   0  0  0  0  0  0  0  0  0  0  0  0
   -0.0422    0.5435    1.0757 H   0  0  0  0  0  0  0  0  0  0  0  0
   -0.6419    1.0598   -0.5168 H   0  0  0  0  0  0  0  0  0  0  0  0
    2.4965   -1.5390   -0.5428 H   0  0  0  0  0  0  0  0  0  0  0  0
    3.2791   -0.2424    0.3950 H   0  0  0  0  0  0  0  0  0  0  0  0
    1.8418   -1.0041    1.1025 H   0  0  0  0  0  0  0  0  0  0  0  0
    1.4682    2.4820   -0.9635 H   0  0  0  0  0  0  0  0  0  0  0  0
    2.0382    1.9568    0.7074 H   0  0  0  0  0  0  0  0  0  0  0  0
    3.0788    1.6422   -0.6947 H   0  0  0  0  0  0  0  0  0  0  0  0
  1  2  1  0
  2  3  1  0
  3  4  1  0
  4  5  1  0
  5  6  1  0
  5  7  1  0
  5  8  1  0
  1  9  1  0
  1 10  1  0
  1 11  1  0
  2 12  1  0
  2 13  1  0
  3 14  1  0
  3 15  1  0
  4 16  1  0
  4 17  1  0
  6 18  1  0
  6 19  1  0
  6 20  1  0
  7 21  1  0
  7 22  1  0
  7 23  1  0
A    1
-0.322199
A    2
-0.072179
A    3
-0.125971
A    4
-0.205132
A    5
0.345996
A    6
-0.407527
A    7
-0.412670
A    8
-0.262160
A    9
0.095961
A   10
0.095506
A   11
0.100761
A   12
0.060518
A   13
0.059175
A   14
0.067961
A   15
0.065834
A   16
0.090754
A   17
0.085478
A   18
0.120870
A   19
0.125599
A   20
0.124745
A   21
0.123218
A   22
0.123006
A   23
0.122456
M  END
