
     RDKit          3D

 17 16  0  0  0  0  0  0  0  0999 V2000
    0.3770   -1.4566   -0.3683 C   0  0  0  0  0  0  0  0  0  0  0  0
   -0.0063   -0.0317    0.0171 C   0  0  0  0  0  0  0  0  0  0  0  0
   -1.0338   -0.0270    1.1230 C   0  0  0  0  0  0  0  0  0  0  0  0
   -0.6066    0.6340   -1.1818 C   0  0  0  0  0  0  0  0  0  0  0  0
    1.2813    0.6428    0.4660 C   0  0  0  0  0  0  0  0  0  0  0  0
    1.0286    2.3139    0.9538 Cl  0  0  0  0  0  0  0  0  0  0  0  0
   -0.4532   -1.9524   -0.8992 H   0  0  0  0  0  0  0  0  0  0  0  0
    1.2119   -1.3395   -1.1135 H   0  0  0  0  0  0  0  0  0  0  0  0
    0.7595   -2.0196    0.4991 H   0  0  0  0  0  0  0  0  0  0  0  0
   -2.0043   -0.3336    0.6530 H   0  0  0  0  0  0  0  0  0  0  0  0
   -1.1718    1.0338    1.4269 H   0  0  0  0  0  0  0  0  0  0  0  0
   -0.7665   -0.6812    1.9673 H   0  0  0  0  0  0  0  0  0  0  0  0
   -0.1035    1.6053   -1.4031 H   0  0  0  0  0  0  0  0  0  0  0  0
   -0.5815   -0.0136   -2.0951 H   0  0  0  0  0  0  0  0  0  0  0  0
   -1.6894    0.8972   -1.0342 H   0  0  0  0  0  0  0  0  0  0  0  0
    1.7152    0.0963    1.3239 H   0  0  0  0  0  0  0  0  0  0  0  0
    2.0436    0.6319   -0.3349 H   0  0  0  0  0  0  0  0  0  0  0  0
  1  2  1  0
  2  3  1  0
  2  4  1  0
  2  5  1  0
  5  6  1  0
  1  7  1  0
  1  8  1  0
  1  9  1  0
  3 10  1  0
  3 11  1  0
  3 12  1  0
  4 13  1  0
  4 14  1  0
  4 15  1  0
  5 16  1  0
  5 17  1  0
A    1
-0.379424
A    2
0.259538
A    3
-0.387655
A    4
-0.388665
A    5
-0.088930
A    6
-0.203423
A    7
0.113179
A    8
0.107347
A    9
0.106800
A   10
0.112083
A   11
0.104202
A   12
0.107998
A   13
0.105427
A   14
0.107666
A   15
0.111581
A   16
0.106745
A   17
0.105529
M  END
