
     RDKit          3D

 29 28  0  0  0  0  0  0  0  0999 V2000
    2.7962    1.0544   -0.7972 C   0  0  0  0  0  0  0  0  0  0  0  0
    2.9880    0.1486    0.3575 C   0  0  0  0  0  0  0  0  0  0  0  0
    1.7935   -0.4014    1.0328 C   0  0  0  0  0  0  0  0  0  0  0  0
    0.8860   -1.2416    0.2112 C   0  0  0  0  0  0  0  0  0  0  0  0
    0.1714   -0.6247   -0.9151 C   0  0  0  0  0  0  0  0  0  0  0  0
   -0.7856    0.4637   -0.5742 C   0  0  0  0  0  0  0  0  0  0  0  0
   -1.5148    1.0647   -2.0734 Cl  0  0  0  0  0  0  0  0  0  0  0  0
   -1.9243    0.0213    0.3150 C   0  0  0  0  0  0  0  0  0  0  0  0
   -2.7924    1.2500    0.5571 C   0  0  0  0  0  0  0  0  0  0  0  0
   -2.7797   -1.0394   -0.2944 C   0  0  0  0  0  0  0  0  0  0  0  0
    2.9993    0.5633   -1.7798 H   0  0  0  0  0  0  0  0  0  0  0  0
    1.8707    1.6162   -0.7464 H   0  0  0  0  0  0  0  0  0  0  0  0
    3.6169    1.8418   -0.7380 H   0  0  0  0  0  0  0  0  0  0  0  0
    3.7060    0.6262    1.0756 H   0  0  0  0  0  0  0  0  0  0  0  0
    3.5648   -0.7508   -0.0573 H   0  0  0  0  0  0  0  0  0  0  0  0
    1.2328    0.3814    1.6201 H   0  0  0  0  0  0  0  0  0  0  0  0
    2.1762   -1.0858    1.8606 H   0  0  0  0  0  0  0  0  0  0  0  0
    0.1785   -1.8293    0.8450 H   0  0  0  0  0  0  0  0  0  0  0  0
    1.5398   -2.0584   -0.2473 H   0  0  0  0  0  0  0  0  0  0  0  0
   -0.4595   -1.4398   -1.4023 H   0  0  0  0  0  0  0  0  0  0  0  0
    0.8374   -0.2836   -1.7217 H   0  0  0  0  0  0  0  0  0  0  0  0
   -0.2935    1.2845   -0.0517 H   0  0  0  0  0  0  0  0  0  0  0  0
   -1.5668   -0.3171    1.3150 H   0  0  0  0  0  0  0  0  0  0  0  0
   -2.3818    1.9025    1.3475 H   0  0  0  0  0  0  0  0  0  0  0  0
   -3.8554    0.9581    0.7714 H   0  0  0  0  0  0  0  0  0  0  0  0
   -2.8692    1.8735   -0.3816 H   0  0  0  0  0  0  0  0  0  0  0  0
   -2.6589   -2.0339    0.2263 H   0  0  0  0  0  0  0  0  0  0  0  0
   -3.8825   -0.8208   -0.1870 H   0  0  0  0  0  0  0  0  0  0  0  0
   -2.5930   -1.1236   -1.3721 H   0  0  0  0  0  0  0  0  0  0  0  0
  1  2  1  0
  2  3  1  0
  3  4  1  0
  4  5  1  0
  5  6  1  0
  6  7  1  0
  6  8  1  0
  8  9  1  0
  8 10  1  0
  1 11  1  0
  1 12  1  0
  1 13  1  0
  2 14  1  0
  2 15  1  0
  3 16  1  0
  3 17  1  0
  4 18  1  0
  4 19  1  0
  5 20  1  0
  5 21  1  0
  6 22  1  0
  8 23  1  0
  9 24  1  0
  9 25  1  0
  9 26  1  0
 10 27  1  0
 10 28  1  0
 10 29  1  0
A    1
-0.329006
A    2
-0.068279
A    3
-0.125998
A    4
-0.122986
A    5
-0.181296
A    6
0.100090
A    7
-0.235005
A    8
0.087110
A    9
-0.364856
A   10
-0.364815
A   11
0.093409
A   12
0.098932
A   13
0.097322
A   14
0.057978
A   15
0.063062
A   16
0.066925
A   17
0.062620
A   18
0.062498
A   19
0.073220
A   20
0.084290
A   21
0.081929
A   22
0.072292
A   23
0.057587
A   24
0.104378
A   25
0.107297
A   26
0.103022
A   27
0.104226
A   28
0.109432
A   29
0.104621
M  END
