
     RDKit          3D

 26 25  0  0  0  0  0  0  0  0999 V2000
   -4.3291    0.0790    0.3636 C   0  0  0  0  0  0  0  0  0  0  0  0
   -3.0692    0.3133   -0.4442 C   0  0  0  0  0  0  0  0  0  0  0  0
   -1.8997   -0.0194    0.4559 C   0  0  0  0  0  0  0  0  0  0  0  0
   -0.5823    0.1792   -0.2494 C   0  0  0  0  0  0  0  0  0  0  0  0
    0.5345   -0.1679    0.6980 C   0  0  0  0  0  0  0  0  0  0  0  0
    1.8669    0.0378   -0.0296 C   0  0  0  0  0  0  0  0  0  0  0  0
    2.9872   -0.3118    0.9253 C   0  0  0  0  0  0  0  0  0  0  0  0
    4.3144   -0.1154    0.2250 C   0  0  0  0  0  0  0  0  0  0  0  0
    4.4694    1.5651   -0.2800 Cl  0  0  0  0  0  0  0  0  0  0  0  0
    5.5976   -0.5004    1.3934 Cl  0  0  0  0  0  0  0  0  0  0  0  0
    4.5024   -1.1627   -1.1697 Cl  0  0  0  0  0  0  0  0  0  0  0  0
   -4.8430    1.0675    0.5067 H   0  0  0  0  0  0  0  0  0  0  0  0
   -4.1248   -0.3078    1.3729 H   0  0  0  0  0  0  0  0  0  0  0  0
   -5.0155   -0.6338   -0.1272 H   0  0  0  0  0  0  0  0  0  0  0  0
   -3.1029   -0.3678   -1.3167 H   0  0  0  0  0  0  0  0  0  0  0  0
   -2.9954    1.3578   -0.8046 H   0  0  0  0  0  0  0  0  0  0  0  0
   -1.9919    0.6193    1.3563 H   0  0  0  0  0  0  0  0  0  0  0  0
   -1.9752   -1.0825    0.7344 H   0  0  0  0  0  0  0  0  0  0  0  0
   -0.4279    1.2075   -0.5984 H   0  0  0  0  0  0  0  0  0  0  0  0
   -0.5635   -0.5092   -1.1108 H   0  0  0  0  0  0  0  0  0  0  0  0
    0.5038    0.4714    1.6036 H   0  0  0  0  0  0  0  0  0  0  0  0
    0.5017   -1.2176    1.0401 H   0  0  0  0  0  0  0  0  0  0  0  0
    1.9277   -0.5927   -0.9315 H   0  0  0  0  0  0  0  0  0  0  0  0
    1.8974    1.0920   -0.3471 H   0  0  0  0  0  0  0  0  0  0  0  0
    2.9374    0.3457    1.8165 H   0  0  0  0  0  0  0  0  0  0  0  0
    2.8801   -1.3470    1.2929 H   0  0  0  0  0  0  0  0  0  0  0  0
  1  2  1  0
  2  3  1  0
  3  4  1  0
  4  5  1  0
  5  6  1  0
  6  7  1  0
  7  8  1  0
  8  9  1  0
  8 10  1  0
  8 11  1  0
  1 12  1  0
  1 13  1  0
  1 14  1  0
  2 15  1  0
  2 16  1  0
  3 17  1  0
  3 18  1  0
  4 19  1  0
  4 20  1  0
  5 21  1  0
  5 22  1  0
  6 23  1  0
  6 24  1  0
  7 25  1  0
  7 26  1  0
A    1
-0.326021
A    2
-0.076546
A    3
-0.130002
A    4
-0.127653
A    5
-0.119730
A    6
-0.120449
A    7
-0.251887
A    8
0.347095
A    9
-0.132013
A   10
-0.153772
A   11
-0.131282
A   12
0.096138
A   13
0.094983
A   14
0.093618
A   15
0.061244
A   16
0.060618
A   17
0.065299
A   18
0.065070
A   19
0.068701
A   20
0.068853
A   21
0.072411
A   22
0.072682
A   23
0.073799
A   24
0.073917
A   25
0.127715
A   26
0.127213
M  END
