
     RDKit          3D

 26 25  0  0  0  0  0  0  0  0999 V2000
   -3.0376    0.3410   -0.0068 C   0  0  0  0  0  0  0  0  0  0  0  0
   -2.2929   -0.6115    0.8844 C   0  0  0  0  0  0  0  0  0  0  0  0
   -0.8260   -0.3070    1.0055 C   0  0  0  0  0  0  0  0  0  0  0  0
   -0.0765   -0.3494   -0.2792 C   0  0  0  0  0  0  0  0  0  0  0  0
   -0.1416   -1.7007   -0.9605 C   0  0  0  0  0  0  0  0  0  0  0  0
   -0.6067    0.9697   -1.3200 Cl  0  0  0  0  0  0  0  0  0  0  0  0
    1.4041   -0.1348    0.0136 C   0  0  0  0  0  0  0  0  0  0  0  0
    1.7031    1.1681    0.6706 C   0  0  0  0  0  0  0  0  0  0  0  0
    3.2190    1.2521    0.8991 C   0  0  0  0  0  0  0  0  0  0  0  0
   -2.6711    1.4032    0.0912 H   0  0  0  0  0  0  0  0  0  0  0  0
   -2.9811    0.0938   -1.0835 H   0  0  0  0  0  0  0  0  0  0  0  0
   -4.1435    0.3336    0.2305 H   0  0  0  0  0  0  0  0  0  0  0  0
   -2.4866   -1.6334    0.5047 H   0  0  0  0  0  0  0  0  0  0  0  0
   -2.7656   -0.5641    1.8865 H   0  0  0  0  0  0  0  0  0  0  0  0
   -0.7328    0.7524    1.3898 H   0  0  0  0  0  0  0  0  0  0  0  0
   -0.3723   -0.9775    1.7631 H   0  0  0  0  0  0  0  0  0  0  0  0
   -1.0834   -1.8471   -1.5211 H   0  0  0  0  0  0  0  0  0  0  0  0
    0.0408   -2.4644   -0.1851 H   0  0  0  0  0  0  0  0  0  0  0  0
    0.7094   -1.7351   -1.6669 H   0  0  0  0  0  0  0  0  0  0  0  0
    1.8930   -0.1049   -1.0053 H   0  0  0  0  0  0  0  0  0  0  0  0
    1.8475   -1.0076    0.5164 H   0  0  0  0  0  0  0  0  0  0  0  0
    1.2241    1.1622    1.6866 H   0  0  0  0  0  0  0  0  0  0  0  0
    1.4031    2.0089    0.0441 H   0  0  0  0  0  0  0  0  0  0  0  0
    3.4610    1.0716    1.9594 H   0  0  0  0  0  0  0  0  0  0  0  0
    3.7578    0.5803    0.2006 H   0  0  0  0  0  0  0  0  0  0  0  0
    3.5547    2.3006    0.6579 H   0  0  0  0  0  0  0  0  0  0  0  0
  1  2  1  0
  2  3  1  0
  3  4  1  0
  4  5  1  0
  4  6  1  0
  4  7  1  0
  7  8  1  0
  8  9  1  0
  1 10  1  0
  1 11  1  0
  1 12  1  0
  2 13  1  0
  2 14  1  0
  3 15  1  0
  3 16  1  0
  5 17  1  0
  5 18  1  0
  5 19  1  0
  7 20  1  0
  7 21  1  0
  8 22  1  0
  8 23  1  0
  9 24  1  0
  9 25  1  0
  9 26  1  0
A    1
-0.329221
A    2
-0.060942
A    3
-0.208423
A    4
0.298810
A    5
-0.411309
A    6
-0.247600
A    7
-0.205920
A    8
-0.074673
A    9
-0.322934
A   10
0.099089
A   11
0.091877
A   12
0.095123
A   13
0.064205
A   14
0.065577
A   15
0.089270
A   16
0.087645
A   17
0.122978
A   18
0.124711
A   19
0.125487
A   20
0.084328
A   21
0.088349
A   22
0.065682
A   23
0.062117
A   24
0.097292
A   25
0.100294
A   26
0.098188
M  END
