
     RDKit          3D

 10  9  0  0  0  0  0  0  0  0999 V2000
   -3.1506   -0.7860   -0.9414 C   0  0  0  0  0  0  0  0  0  0  0  0
   -2.4191   -0.0355    0.1694 C   0  0  0  0  0  0  0  0  0  0  0  0
   -0.9534   -0.0331   -0.2186 C   0  0  0  0  0  0  0  0  0  0  0  0
   -0.4655   -1.4555   -0.3288 C   0  0  0  0  0  0  0  0  0  0  0  0
   -0.8492    0.6749   -1.5490 C   0  0  0  0  0  0  0  0  0  0  0  0
   -0.2160    0.6985    0.8830 C   0  0  0  0  0  0  0  0  0  0  0  0
    1.2838    0.7539    0.5800 C   0  0  0  0  0  0  0  0  0  0  0  0
    1.4417    1.7073   -1.1159 Br  0  0  0  0  0  0  0  0  0  0  0  0
    1.7309   -0.6838    0.4132 C   0  0  0  0  0  0  0  0  0  0  0  0
    3.5975   -0.8407    0.0242 Br  0  0  0  0  0  0  0  0  0  0  0  0
  1  2  1  0
  2  3  1  0
  3  4  1  0
  3  5  1  0
  3  6  1  0
  6  7  1  0
  7  8  1  0
  7  9  1  0
  9 10  1  0
A    1
0.000
A    2
0.000
A    3
0.000
A    4
0.000
A    5
0.000
A    6
0.000
A    7
0.270
A    8
-0.270
A    9
0.236
A   10
-0.236
M  END
$$$$
