
     RDKit          3D

  9  8  0  0  0  0  0  0  0  0999 V2000
    2.7763    1.8789    0.3444 C   0  0  0  0  0  0  0  0  0  0  0  0
    3.1580    0.5882   -0.3409 C   0  0  0  0  0  0  0  0  0  0  0  0
    2.2499   -0.5572    0.0830 C   0  0  0  0  0  0  0  0  0  0  0  0
    0.7986   -0.2331   -0.2798 C   0  0  0  0  0  0  0  0  0  0  0  0
   -0.0133   -1.4260    0.1807 C   0  0  0  0  0  0  0  0  0  0  0  0
   -1.4711   -1.2945   -0.0900 C   0  0  0  0  0  0  0  0  0  0  0  0
   -2.0910   -0.0939    0.5962 C   0  0  0  0  0  0  0  0  0  0  0  0
   -1.4472    1.1898    0.1406 C   0  0  0  0  0  0  0  0  0  0  0  0
   -3.9602   -0.0523    0.0972 Br  0  0  0  0  0  0  0  0  0  0  0  0
  1  2  1  0
  2  3  1  0
  3  4  1  0
  4  5  1  0
  5  6  1  0
  6  7  1  0
  7  8  1  0
  7  9  1  0
A    1
0.000
A    2
0.000
A    3
0.000
A    4
0.000
A    5
0.000
A    6
0.000
A    7
0.270
A    8
0.000
A    9
-0.270
M  END
$$$$
