
     RDKit          3D

  6  5  0  0  0  0  0  0  0  0999 V2000
   -1.4492   -0.2007   -1.2732 C   0  0  0  0  0  0  0  0  0  0  0  0
   -0.4187    0.0429   -0.1802 C   0  0  0  0  0  0  0  0  0  0  0  0
   -1.0663   -0.7444    1.4478 Br  0  0  0  0  0  0  0  0  0  0  0  0
   -0.2033    1.9421    0.0390 Br  0  0  0  0  0  0  0  0  0  0  0  0
    0.8583   -0.6274   -0.6564 C   0  0  0  0  0  0  0  0  0  0  0  0
    2.2792   -0.4125    0.6230 Br  0  0  0  0  0  0  0  0  0  0  0  0
  1  2  1  0
  2  3  1  0
  2  4  1  0
  2  5  1  0
  5  6  1  0
A    1
0.000
A    2
0.458
A    3
-0.229
A    4
-0.229
A    5
0.236
A    6
-0.236
M  END
$$$$
