
     RDKit          3D

  6  5  0  0  0  0  0  0  0  0999 V2000
   -1.6853   -1.0241    0.4289 C   0  0  0  0  0  0  0  0  0  0  0  0
   -1.0808   -0.0884   -0.5224 C   0  0  0  0  0  0  0  0  0  0  0  0
   -1.9498    1.5345   -0.8517 Br  0  0  0  0  0  0  0  0  0  0  0  0
    0.3419   -0.1915   -0.8065 C   0  0  0  0  0  0  0  0  0  0  0  0
    1.2816   -0.0234    0.3316 C   0  0  0  0  0  0  0  0  0  0  0  0
    3.0924   -0.2071   -0.3240 Br  0  0  0  0  0  0  0  0  0  0  0  0
  1  2  1  0
  2  3  1  0
  2  4  1  0
  4  5  1  0
  5  6  1  0
A    1
0.000
A    2
0.270
A    3
-0.270
A    4
0.000
A    5
0.236
A    6
-0.236
M  END
$$$$
