
     RDKit          3D

  5  4  0  0  0  0  0  0  0  0999 V2000
   -0.1155   -1.0833   -1.1407 C   0  0  0  0  0  0  0  0  0  0  0  0
    0.0062   -0.1130   -0.0050 C   0  0  0  0  0  0  0  0  0  0  0  0
   -0.0599   -0.8324    1.3192 C   0  0  0  0  0  0  0  0  0  0  0  0
   -1.4740    1.1233   -0.0745 Br  0  0  0  0  0  0  0  0  0  0  0  0
    1.6431    0.9054   -0.0990 Br  0  0  0  0  0  0  0  0  0  0  0  0
  1  2  1  0
  2  3  1  0
  2  4  1  0
  2  5  1  0
A    1
0.000
A    2
0.458
A    3
0.000
A    4
-0.229
A    5
-0.229
M  END
$$$$
