
     RDKit          3D

  7  6  0  0  0  0  0  0  0  0999 V2000
   -0.4947   -1.6184   -0.8991 C   0  0  0  0  0  0  0  0  0  0  0  0
   -0.3541   -0.3873   -0.0383 C   0  0  0  0  0  0  0  0  0  0  0  0
   -1.9164   -0.3850    1.1193 Br  0  0  0  0  0  0  0  0  0  0  0  0
   -0.3872    0.8268   -0.9729 C   0  0  0  0  0  0  0  0  0  0  0  0
   -0.2086    2.4354    0.0978 Br  0  0  0  0  0  0  0  0  0  0  0  0
    0.8534   -0.3858    0.8247 C   0  0  0  0  0  0  0  0  0  0  0  0
    2.5076   -0.4857   -0.1315 Br  0  0  0  0  0  0  0  0  0  0  0  0
  1  2  1  0
  2  3  1  0
  2  4  1  0
  4  5  1  0
  2  6  1  0
  6  7  1  0
A    1
0.000
A    2
0.276
A    3
-0.276
A    4
0.236
A    5
-0.236
A    6
0.236
A    7
-0.236
M  END
$$$$
