
     RDKit          3D

  7  6  0  0  0  0  0  0  0  0999 V2000
    1.8295   -1.3368   -0.1118 C   0  0  0  0  0  0  0  0  0  0  0  0
    0.9344   -0.5357    0.7707 C   0  0  0  0  0  0  0  0  0  0  0  0
    0.0163    0.3932    0.0484 C   0  0  0  0  0  0  0  0  0  0  0  0
    0.9580    1.7002   -1.0201 Br  0  0  0  0  0  0  0  0  0  0  0  0
   -0.9775    1.3966    1.3781 Br  0  0  0  0  0  0  0  0  0  0  0  0
   -0.9401   -0.3219   -0.8898 C   0  0  0  0  0  0  0  0  0  0  0  0
   -1.8208   -1.2956   -0.1754 C   0  0  0  0  0  0  0  0  0  0  0  0
  1  2  1  0
  2  3  1  0
  3  4  1  0
  3  5  1  0
  3  6  1  0
  6  7  1  0
A    1
0.000
A    2
0.000
A    3
0.458
A    4
-0.229
A    5
-0.229
A    6
0.000
A    7
0.000
M  END
$$$$
