
     RDKit          3D

  9  8  0  0  0  0  0  0  0  0999 V2000
    2.9060    0.6376    0.2907 C   0  0  0  0  0  0  0  0  0  0  0  0
    2.3539   -0.7421    0.1298 C   0  0  0  0  0  0  0  0  0  0  0  0
    1.1361   -0.8713   -0.6760 C   0  0  0  0  0  0  0  0  0  0  0  0
   -0.0726   -0.1499   -0.2394 C   0  0  0  0  0  0  0  0  0  0  0  0
    0.0797    1.7484   -0.1267 Br  0  0  0  0  0  0  0  0  0  0  0  0
   -0.5771   -0.6498    1.1019 C   0  0  0  0  0  0  0  0  0  0  0  0
   -1.8094    0.1038    1.5207 C   0  0  0  0  0  0  0  0  0  0  0  0
   -1.1942   -0.4809   -1.2338 C   0  0  0  0  0  0  0  0  0  0  0  0
   -2.8223    0.4041   -0.7671 Br  0  0  0  0  0  0  0  0  0  0  0  0
  1  2  1  0
  2  3  1  0
  3  4  1  0
  4  5  1  0
  4  6  1  0
  6  7  1  0
  4  8  1  0
  8  9  1  0
A    1
0.000
A    2
0.000
A    3
0.000
A    4
0.276
A    5
-0.276
A    6
0.000
A    7
0.000
A    8
0.236
A    9
-0.236
M  END
$$$$
