
     RDKit          3D

  7  6  0  0  0  0  0  0  0  0999 V2000
   -1.2289   -1.4559   -0.0776 C   0  0  0  0  0  0  0  0  0  0  0  0
   -0.6662   -0.0493   -0.0333 C   0  0  0  0  0  0  0  0  0  0  0  0
   -1.4369    0.6772    1.0732 C   0  0  0  0  0  0  0  0  0  0  0  0
   -0.8536    0.6796   -1.3481 C   0  0  0  0  0  0  0  0  0  0  0  0
    0.7855   -0.0869    0.3948 C   0  0  0  0  0  0  0  0  0  0  0  0
    1.5830    1.6367    0.4807 Br  0  0  0  0  0  0  0  0  0  0  0  0
    1.8172   -1.4014   -0.4896 Br  0  0  0  0  0  0  0  0  0  0  0  0
  1  2  1  0
  2  3  1  0
  2  4  1  0
  2  5  1  0
  5  6  1  0
  5  7  1  0
A    1
0.000
A    2
0.000
A    3
0.000
A    4
0.000
A    5
0.438
A    6
-0.219
A    7
-0.219
M  END
$$$$
