
     RDKit          3D

 11 10  0  0  0  0  0  0  0  0999 V2000
   -4.2643    0.2474    1.5927 C   0  0  0  0  0  0  0  0  0  0  0  0
   -2.9804    0.0336    0.8368 C   0  0  0  0  0  0  0  0  0  0  0  0
   -3.0884    0.3518   -0.6171 C   0  0  0  0  0  0  0  0  0  0  0  0
   -1.7383    0.0956   -1.2534 C   0  0  0  0  0  0  0  0  0  0  0  0
   -0.6957    0.9821   -0.5981 C   0  0  0  0  0  0  0  0  0  0  0  0
    0.6294    0.6575   -1.3000 C   0  0  0  0  0  0  0  0  0  0  0  0
    0.8574   -0.8370   -1.0424 C   0  0  0  0  0  0  0  0  0  0  0  0
    0.9251   -0.9883    0.4728 C   0  0  0  0  0  0  0  0  0  0  0  0
    2.1018   -0.1185    0.9326 C   0  0  0  0  0  0  0  0  0  0  0  0
    3.3268   -0.6941    0.2161 C   0  0  0  0  0  0  0  0  0  0  0  0
    4.9267    0.2699    0.6647 Br  0  0  0  0  0  0  0  0  0  0  0  0
  1  2  1  0
  2  3  1  0
  3  4  1  0
  4  5  1  0
  5  6  1  0
  6  7  1  0
  7  8  1  0
  8  9  1  0
  9 10  1  0
 10 11  1  0
A    1
0.000
A    2
0.000
A    3
0.000
A    4
0.000
A    5
0.000
A    6
0.000
A    7
0.000
A    8
0.000
A    9
0.000
A   10
0.236
A   11
-0.236
M  END
$$$$
