
     RDKit          3D

  8  7  0  0  0  0  0  0  0  0999 V2000
    3.2352   -1.1125   -0.4756 C   0  0  0  0  0  0  0  0  0  0  0  0
    2.7041    0.1026    0.2277 C   0  0  0  0  0  0  0  0  0  0  0  0
    1.3063    0.4702   -0.1811 C   0  0  0  0  0  0  0  0  0  0  0  0
    0.3132   -0.6572    0.1119 C   0  0  0  0  0  0  0  0  0  0  0  0
   -1.0320   -0.1735   -0.3361 C   0  0  0  0  0  0  0  0  0  0  0  0
   -2.4458   -1.4210   -0.0692 Br  0  0  0  0  0  0  0  0  0  0  0  0
   -1.3536    1.2194    0.1022 C   0  0  0  0  0  0  0  0  0  0  0  0
   -2.7275    1.5719   -0.4158 C   0  0  0  0  0  0  0  0  0  0  0  0
  1  2  1  0
  2  3  1  0
  3  4  1  0
  4  5  1  0
  5  6  1  0
  5  7  1  0
  7  8  1  0
A    1
0.000
A    2
0.000
A    3
0.000
A    4
0.000
A    5
0.270
A    6
-0.270
A    7
0.000
A    8
0.000
M  END
$$$$
