
     RDKit          3D

  7  6  0  0  0  0  0  0  0  0999 V2000
   -1.5027    1.6804   -0.1652 C   0  0  0  0  0  0  0  0  0  0  0  0
   -0.7947    0.7419    0.7539 C   0  0  0  0  0  0  0  0  0  0  0  0
   -0.1342   -0.4156    0.0494 C   0  0  0  0  0  0  0  0  0  0  0  0
   -1.4211   -1.4922   -0.9280 Br  0  0  0  0  0  0  0  0  0  0  0  0
    0.6228   -1.5779    1.4010 Br  0  0  0  0  0  0  0  0  0  0  0  0
    0.9038    0.0251   -0.9544 C   0  0  0  0  0  0  0  0  0  0  0  0
    2.3260    1.0383   -0.1566 Br  0  0  0  0  0  0  0  0  0  0  0  0
  1  2  1  0
  2  3  1  0
  3  4  1  0
  3  5  1  0
  3  6  1  0
  6  7  1  0
A    1
0.000
A    2
0.000
A    3
0.458
A    4
-0.229
A    5
-0.229
A    6
0.236
A    7
-0.236
M  END
$$$$
