
     RDKit          3D

  3  2  0  0  0  0  0  0  0  0999 V2000
   -1.5763   -0.3756   -0.0000 Br  0  0  0  0  0  0  0  0  0  0  0  0
   -0.0053    0.7474   -0.0000 C   0  0  0  0  0  0  0  0  0  0  0  0
    1.5816   -0.3719    0.0000 Br  0  0  0  0  0  0  0  0  0  0  0  0
  1  2  1  0
  2  3  1  0
A    1
-0.184
A    2
0.368
A    3
-0.184
M  END
$$$$
