
     RDKit          3D

  8  7  0  0  0  0  0  0  0  0999 V2000
   -1.3251    1.7442    0.6119 C   0  0  0  0  0  0  0  0  0  0  0  0
   -1.4266    1.1068   -0.7439 C   0  0  0  0  0  0  0  0  0  0  0  0
   -1.3932   -0.4166   -0.6667 C   0  0  0  0  0  0  0  0  0  0  0  0
   -2.9084   -0.9922    0.4221 Br  0  0  0  0  0  0  0  0  0  0  0  0
   -0.1476   -0.7590    0.1537 C   0  0  0  0  0  0  0  0  0  0  0  0
    1.0803   -0.2054   -0.5591 C   0  0  0  0  0  0  0  0  0  0  0  0
    2.2724   -0.5866    0.3175 C   0  0  0  0  0  0  0  0  0  0  0  0
    3.8482    0.1088   -0.5714 Br  0  0  0  0  0  0  0  0  0  0  0  0
  1  2  1  0
  2  3  1  0
  3  4  1  0
  3  5  1  0
  5  6  1  0
  6  7  1  0
  7  8  1  0
A    1
0.000
A    2
0.000
A    3
0.270
A    4
-0.270
A    5
0.000
A    6
0.000
A    7
0.236
A    8
-0.236
M  END
$$$$
