
     RDKit          3D

  8  7  0  0  0  0  0  0  0  0999 V2000
   -1.6996    1.7725   -0.3436 Br  0  0  0  0  0  0  0  0  0  0  0  0
   -2.4624    0.0203   -0.0511 C   0  0  0  0  0  0  0  0  0  0  0  0
   -1.5177   -1.0473   -0.5218 C   0  0  0  0  0  0  0  0  0  0  0  0
   -0.1880   -1.0203    0.1883 C   0  0  0  0  0  0  0  0  0  0  0  0
    0.8680   -2.4727   -0.5706 Br  0  0  0  0  0  0  0  0  0  0  0  0
    0.5153    0.2604   -0.1640 C   0  0  0  0  0  0  0  0  0  0  0  0
    1.8613    0.3936    0.4941 C   0  0  0  0  0  0  0  0  0  0  0  0
    2.6230    2.0935   -0.0673 Br  0  0  0  0  0  0  0  0  0  0  0  0
  1  2  1  0
  2  3  1  0
  3  4  1  0
  4  5  1  0
  4  6  1  0
  6  7  1  0
  7  8  1  0
A    1
-0.236
A    2
0.236
A    3
0.000
A    4
0.270
A    5
-0.270
A    6
0.000
A    7
0.236
A    8
-0.236
M  END
$$$$
