
     RDKit          3D

  7  6  0  0  0  0  0  0  0  0999 V2000
   -1.7697    1.0032    0.2285 C   0  0  0  0  0  0  0  0  0  0  0  0
   -0.8979   -0.0258   -0.4147 C   0  0  0  0  0  0  0  0  0  0  0  0
   -1.4393   -1.4080   -0.3726 C   0  0  0  0  0  0  0  0  0  0  0  0
    0.5315    0.0711    0.0719 C   0  0  0  0  0  0  0  0  0  0  0  0
    0.6199   -0.1339    1.5710 C   0  0  0  0  0  0  0  0  0  0  0  0
    1.6366   -1.2892   -0.7416 Br  0  0  0  0  0  0  0  0  0  0  0  0
    1.3189    1.7825   -0.3424 Br  0  0  0  0  0  0  0  0  0  0  0  0
  1  2  1  0
  2  3  1  0
  2  4  1  0
  4  5  1  0
  4  6  1  0
  4  7  1  0
A    1
0.000
A    2
0.000
A    3
0.000
A    4
0.458
A    5
0.000
A    6
-0.229
A    7
-0.229
M  END
$$$$
