
     RDKit          3D

  8  7  0  0  0  0  0  0  0  0999 V2000
    1.6290    1.5487   -0.1886 C   0  0  0  0  0  0  0  0  0  0  0  0
    1.1290    0.1871   -0.6188 C   0  0  0  0  0  0  0  0  0  0  0  0
    2.3435   -1.2260   -0.1330 Br  0  0  0  0  0  0  0  0  0  0  0  0
   -0.2115   -0.1363    0.0439 C   0  0  0  0  0  0  0  0  0  0  0  0
   -0.0607   -0.1359    1.5496 C   0  0  0  0  0  0  0  0  0  0  0  0
   -0.7201   -1.8931   -0.5189 Br  0  0  0  0  0  0  0  0  0  0  0  0
   -1.1747    0.9330   -0.4244 C   0  0  0  0  0  0  0  0  0  0  0  0
   -2.9345    0.7225    0.2903 Br  0  0  0  0  0  0  0  0  0  0  0  0
  1  2  1  0
  2  3  1  0
  2  4  1  0
  4  5  1  0
  4  6  1  0
  4  7  1  0
  7  8  1  0
A    1
0.000
A    2
0.270
A    3
-0.270
A    4
0.276
A    5
0.000
A    6
-0.276
A    7
0.236
A    8
-0.236
M  END
$$$$
