
     RDKit          3D

  6  5  0  0  0  0  0  0  0  0999 V2000
   -2.1216   -1.0354   -0.1279 C   0  0  0  0  0  0  0  0  0  0  0  0
   -1.1028    0.0422   -0.3256 C   0  0  0  0  0  0  0  0  0  0  0  0
   -1.4401    1.2963    0.4525 C   0  0  0  0  0  0  0  0  0  0  0  0
    0.2658   -0.4824   -0.0293 C   0  0  0  0  0  0  0  0  0  0  0  0
    1.3557    0.5259   -0.1996 C   0  0  0  0  0  0  0  0  0  0  0  0
    3.0431   -0.3466    0.2300 Br  0  0  0  0  0  0  0  0  0  0  0  0
  1  2  1  0
  2  3  1  0
  2  4  1  0
  4  5  1  0
  5  6  1  0
A    1
0.000
A    2
0.000
A    3
0.000
A    4
0.000
A    5
0.236
A    6
-0.236
M  END
$$$$
