
     RDKit          3D

  7  6  0  0  0  0  0  0  0  0999 V2000
   -0.4840   -1.6891   -0.7495 C   0  0  0  0  0  0  0  0  0  0  0  0
   -0.3670   -0.3969    0.0441 C   0  0  0  0  0  0  0  0  0  0  0  0
   -1.4866   -0.4435    1.0567 C   0  0  0  0  0  0  0  0  0  0  0  0
   -0.6119    0.7640   -0.8889 C   0  0  0  0  0  0  0  0  0  0  0  0
   -0.4589    2.4024    0.1395 Br  0  0  0  0  0  0  0  0  0  0  0  0
    0.9422   -0.2977    0.7668 C   0  0  0  0  0  0  0  0  0  0  0  0
    2.4662   -0.3391   -0.3686 Br  0  0  0  0  0  0  0  0  0  0  0  0
  1  2  1  0
  2  3  1  0
  2  4  1  0
  4  5  1  0
  2  6  1  0
  6  7  1  0
A    1
0.000
A    2
0.000
A    3
0.000
A    4
0.236
A    5
-0.236
A    6
0.236
A    7
-0.236
M  END
$$$$
