
     RDKit          3D

  7  6  0  0  0  0  0  0  0  0999 V2000
    0.4122    1.6285    0.1670 C   0  0  0  0  0  0  0  0  0  0  0  0
   -0.3675    0.4408   -0.3164 C   0  0  0  0  0  0  0  0  0  0  0  0
   -1.8300    0.5796   -0.0494 C   0  0  0  0  0  0  0  0  0  0  0  0
   -2.8165   -0.9342   -0.6666 Br  0  0  0  0  0  0  0  0  0  0  0  0
    0.1901   -0.8734    0.2048 C   0  0  0  0  0  0  0  0  0  0  0  0
    1.6023   -1.0982   -0.2186 C   0  0  0  0  0  0  0  0  0  0  0  0
    2.8094    0.2570    0.3906 Br  0  0  0  0  0  0  0  0  0  0  0  0
  1  2  1  0
  2  3  1  0
  3  4  1  0
  2  5  1  0
  5  6  1  0
  6  7  1  0
A    1
0.000
A    2
0.000
A    3
0.236
A    4
-0.236
A    5
0.000
A    6
0.236
A    7
-0.236
M  END
$$$$
