
     RDKit          3D

  8  7  0  0  0  0  0  0  0  0999 V2000
    1.7102    1.4503    0.0623 C   0  0  0  0  0  0  0  0  0  0  0  0
    1.2206    0.1339   -0.5148 C   0  0  0  0  0  0  0  0  0  0  0  0
    2.1267   -1.0097   -0.0850 C   0  0  0  0  0  0  0  0  0  0  0  0
   -0.1785   -0.1843    0.0057 C   0  0  0  0  0  0  0  0  0  0  0  0
   -0.1858   -0.2976    1.5181 C   0  0  0  0  0  0  0  0  0  0  0  0
   -0.7543   -1.8450   -0.7822 Br  0  0  0  0  0  0  0  0  0  0  0  0
   -1.0644    0.9761   -0.3828 C   0  0  0  0  0  0  0  0  0  0  0  0
   -2.8744    0.7762    0.1789 Br  0  0  0  0  0  0  0  0  0  0  0  0
  1  2  1  0
  2  3  1  0
  2  4  1  0
  4  5  1  0
  4  6  1  0
  4  7  1  0
  7  8  1  0
A    1
0.000
A    2
0.000
A    3
0.000
A    4
0.276
A    5
0.000
A    6
-0.276
A    7
0.236
A    8
-0.236
M  END
$$$$
