
     RDKit          3D

  7  6  0  0  0  0  0  0  0  0999 V2000
   -1.3465    1.4530   -0.3250 C   0  0  0  0  0  0  0  0  0  0  0  0
   -1.3284   -0.0145   -0.1377 C   0  0  0  0  0  0  0  0  0  0  0  0
   -2.5352   -0.7468   -0.5973 C   0  0  0  0  0  0  0  0  0  0  0  0
   -0.0400   -0.6975   -0.3339 C   0  0  0  0  0  0  0  0  0  0  0  0
    1.0714   -0.2638    0.5660 C   0  0  0  0  0  0  0  0  0  0  0  0
    2.6313   -1.3275    0.0810 Br  0  0  0  0  0  0  0  0  0  0  0  0
    1.5474    1.5971    0.2583 Br  0  0  0  0  0  0  0  0  0  0  0  0
  1  2  1  0
  2  3  1  0
  2  4  1  0
  4  5  1  0
  5  6  1  0
  5  7  1  0
A    1
0.000
A    2
0.000
A    3
0.000
A    4
0.000
A    5
0.438
A    6
-0.219
A    7
-0.219
M  END
$$$$
