
     RDKit          3D

 10  9  0  0  0  0  0  0  0  0999 V2000
    3.6955   -0.6991   -0.7972 C   0  0  0  0  0  0  0  0  0  0  0  0
    3.0106    0.4103   -0.0281 C   0  0  0  0  0  0  0  0  0  0  0  0
    1.9640   -0.2299    0.8733 C   0  0  0  0  0  0  0  0  0  0  0  0
    0.9972   -0.9623   -0.0616 C   0  0  0  0  0  0  0  0  0  0  0  0
    0.4226    0.1235   -0.9720 C   0  0  0  0  0  0  0  0  0  0  0  0
   -0.2739    1.1127   -0.0269 C   0  0  0  0  0  0  0  0  0  0  0  0
   -1.3430    0.2629    0.6799 C   0  0  0  0  0  0  0  0  0  0  0  0
   -2.2253   -0.2484   -0.4412 C   0  0  0  0  0  0  0  0  0  0  0  0
   -3.3472   -1.1111    0.0404 C   0  0  0  0  0  0  0  0  0  0  0  0
   -2.9005    1.3415   -1.3502 Br  0  0  0  0  0  0  0  0  0  0  0  0
  1  2  1  0
  2  3  1  0
  3  4  1  0
  4  5  1  0
  5  6  1  0
  6  7  1  0
  7  8  1  0
  8  9  1  0
  8 10  1  0
A    1
0.000
A    2
0.000
A    3
0.000
A    4
0.000
A    5
0.000
A    6
0.000
A    7
0.000
A    8
0.270
A    9
0.000
A   10
-0.270
M  END
$$$$
