
     RDKit          3D

  7  6  0  0  0  0  0  0  0  0999 V2000
    2.1975    0.7453   -0.3463 C   0  0  0  0  0  0  0  0  0  0  0  0
    1.3821    0.2360    0.8530 C   0  0  0  0  0  0  0  0  0  0  0  0
    0.2090   -0.4718    0.3388 C   0  0  0  0  0  0  0  0  0  0  0  0
    0.4994   -1.9687   -0.7619 Br  0  0  0  0  0  0  0  0  0  0  0  0
   -1.0518    0.2377    0.2259 C   0  0  0  0  0  0  0  0  0  0  0  0
   -2.2242   -0.4814   -0.2914 C   0  0  0  0  0  0  0  0  0  0  0  0
   -1.0120    1.7028   -0.0180 C   0  0  0  0  0  0  0  0  0  0  0  0
  1  2  1  0
  2  3  1  0
  3  4  1  0
  3  5  1  0
  5  6  1  0
  5  7  1  0
A    1
0.000
A    2
0.000
A    3
0.270
A    4
-0.270
A    5
0.000
A    6
0.000
A    7
0.000
M  END
$$$$
