
     RDKit          3D

  5  4  0  0  0  0  0  0  0  0999 V2000
   -1.6889   -0.5102    0.6835 C   0  0  0  0  0  0  0  0  0  0  0  0
   -0.8806   -0.5052   -0.5859 C   0  0  0  0  0  0  0  0  0  0  0  0
    0.4298    0.1795   -0.4786 C   0  0  0  0  0  0  0  0  0  0  0  0
    0.3754    1.6171   -0.1011 C   0  0  0  0  0  0  0  0  0  0  0  0
    1.7643   -0.7812    0.4821 Br  0  0  0  0  0  0  0  0  0  0  0  0
  1  2  1  0
  2  3  1  0
  3  4  1  0
  3  5  1  0
A    1
0.000
A    2
0.000
A    3
0.270
A    4
0.000
A    5
-0.270
M  END
$$$$
