
     RDKit          3D

  7  6  0  0  0  0  0  0  0  0999 V2000
   -3.2757    0.2651    0.2408 C   0  0  0  0  0  0  0  0  0  0  0  0
   -1.7864    0.4822    0.0636 C   0  0  0  0  0  0  0  0  0  0  0  0
   -1.2295   -0.7781   -0.5799 C   0  0  0  0  0  0  0  0  0  0  0  0
    0.2789   -0.6257   -0.7884 C   0  0  0  0  0  0  0  0  0  0  0  0
    0.8826   -0.4083    0.5851 C   0  0  0  0  0  0  0  0  0  0  0  0
    2.3704   -0.2401    0.5462 C   0  0  0  0  0  0  0  0  0  0  0  0
    2.7597    1.3049   -0.5558 Br  0  0  0  0  0  0  0  0  0  0  0  0
  1  2  1  0
  2  3  1  0
  3  4  1  0
  4  5  1  0
  5  6  1  0
  6  7  1  0
A    1
0.000
A    2
0.000
A    3
0.000
A    4
0.000
A    5
0.000
A    6
0.236
A    7
-0.236
M  END
$$$$
