
     RDKit          3D

  4  3  0  0  0  0  0  0  0  0999 V2000
   -0.0663    1.5082   -0.1972 C   0  0  0  0  0  0  0  0  0  0  0  0
   -0.0004    0.1529    0.4691 C   0  0  0  0  0  0  0  0  0  0  0  0
    1.5911   -0.7791   -0.1372 Br  0  0  0  0  0  0  0  0  0  0  0  0
   -1.5245   -0.8820   -0.1347 Br  0  0  0  0  0  0  0  0  0  0  0  0
  1  2  1  0
  2  3  1  0
  2  4  1  0
A    1
0.000
A    2
0.438
A    3
-0.219
A    4
-0.219
M  END
$$$$
