
     RDKit          3D

  6  5  0  0  0  0  0  0  0  0999 V2000
    1.9585    0.4709    0.5479 C   0  0  0  0  0  0  0  0  0  0  0  0
    1.5802   -0.5597   -0.4861 C   0  0  0  0  0  0  0  0  0  0  0  0
    0.3990   -0.1656   -1.3167 C   0  0  0  0  0  0  0  0  0  0  0  0
   -0.8491    0.0694   -0.5838 C   0  0  0  0  0  0  0  0  0  0  0  0
   -0.8974    1.3983    0.7221 Br  0  0  0  0  0  0  0  0  0  0  0  0
   -2.1912   -1.2133   -0.6273 Br  0  0  0  0  0  0  0  0  0  0  0  0
  1  2  1  0
  2  3  1  0
  3  4  1  0
  4  5  1  0
  4  6  1  0
A    1
0.000
A    2
0.000
A    3
0.000
A    4
0.438
A    5
-0.219
A    6
-0.219
M  END
$$$$
