
     RDKit          3D

  7  6  0  0  0  0  0  0  0  0999 V2000
   -1.3382    1.4351    0.4116 C   0  0  0  0  0  0  0  0  0  0  0  0
   -1.3536    0.0812   -0.2059 C   0  0  0  0  0  0  0  0  0  0  0  0
   -0.0223   -0.6007   -0.1301 C   0  0  0  0  0  0  0  0  0  0  0  0
   -0.1523   -1.9771   -0.7908 C   0  0  0  0  0  0  0  0  0  0  0  0
    0.3907   -0.9407    1.7305 Br  0  0  0  0  0  0  0  0  0  0  0  0
    1.0759    0.1223   -0.8396 C   0  0  0  0  0  0  0  0  0  0  0  0
    1.3998    1.8799   -0.1758 Br  0  0  0  0  0  0  0  0  0  0  0  0
  1  2  1  0
  2  3  1  0
  3  4  1  0
  3  5  1  0
  3  6  1  0
  6  7  1  0
A    1
0.000
A    2
0.000
A    3
0.276
A    4
0.000
A    5
-0.276
A    6
0.236
A    7
-0.236
M  END
$$$$
