
     RDKit          3D

  6  5  0  0  0  0  0  0  0  0999 V2000
   -1.6770   -0.8253    0.8226 C   0  0  0  0  0  0  0  0  0  0  0  0
   -0.6812   -0.4435   -0.2362 C   0  0  0  0  0  0  0  0  0  0  0  0
   -1.2585    1.1054   -1.1989 Br  0  0  0  0  0  0  0  0  0  0  0  0
    0.7121   -0.3236    0.3137 C   0  0  0  0  0  0  0  0  0  0  0  0
    0.8737    0.6908    1.3831 C   0  0  0  0  0  0  0  0  0  0  0  0
    2.0309   -0.2038   -1.0843 Br  0  0  0  0  0  0  0  0  0  0  0  0
  1  2  1  0
  2  3  1  0
  2  4  1  0
  4  5  1  0
  4  6  1  0
A    1
0.000
A    2
0.270
A    3
-0.270
A    4
0.270
A    5
0.000
A    6
-0.270
M  END
$$$$
