
     RDKit          3D

  7  6  0  0  0  0  0  0  0  0999 V2000
    1.4581    1.0595    1.0593 C   0  0  0  0  0  0  0  0  0  0  0  0
    1.1758    0.2876   -0.1833 C   0  0  0  0  0  0  0  0  0  0  0  0
    2.7574   -0.4926   -0.9437 Br  0  0  0  0  0  0  0  0  0  0  0  0
    0.0504   -0.7044   -0.0511 C   0  0  0  0  0  0  0  0  0  0  0  0
   -1.2527   -0.0767    0.3122 C   0  0  0  0  0  0  0  0  0  0  0  0
   -2.2874   -1.1904    0.4099 C   0  0  0  0  0  0  0  0  0  0  0  0
   -1.9015    1.1170   -1.0919 Br  0  0  0  0  0  0  0  0  0  0  0  0
  1  2  1  0
  2  3  1  0
  2  4  1  0
  4  5  1  0
  5  6  1  0
  5  7  1  0
A    1
0.000
A    2
0.270
A    3
-0.270
A    4
0.000
A    5
0.270
A    6
0.000
A    7
-0.270
M  END
$$$$
