
     RDKit          3D

  6  5  0  0  0  0  0  0  0  0999 V2000
   -1.9900   -1.0111    0.1802 C   0  0  0  0  0  0  0  0  0  0  0  0
   -0.5845   -1.0187   -0.4027 C   0  0  0  0  0  0  0  0  0  0  0  0
    0.4047   -0.3588    0.5359 C   0  0  0  0  0  0  0  0  0  0  0  0
    2.1368   -0.4402   -0.3286 Br  0  0  0  0  0  0  0  0  0  0  0  0
   -0.0019    1.0908    0.6935 C   0  0  0  0  0  0  0  0  0  0  0  0
    0.0348    1.7380   -0.6784 C   0  0  0  0  0  0  0  0  0  0  0  0
  1  2  1  0
  2  3  1  0
  3  4  1  0
  3  5  1  0
  5  6  1  0
A    1
0.000
A    2
0.000
A    3
0.270
A    4
-0.270
A    5
0.000
A    6
0.000
M  END
$$$$
