
     RDKit          3D

 10  9  0  0  0  0  0  0  0  0999 V2000
   -3.9661    1.6301   -0.0257 C   0  0  0  0  0  0  0  0  0  0  0  0
   -2.9562    0.6476   -0.5801 C   0  0  0  0  0  0  0  0  0  0  0  0
   -2.2480   -0.1087    0.5194 C   0  0  0  0  0  0  0  0  0  0  0  0
   -1.2667   -1.0560   -0.1795 C   0  0  0  0  0  0  0  0  0  0  0  0
   -0.3263   -0.1482   -0.9814 C   0  0  0  0  0  0  0  0  0  0  0  0
    0.3366    0.7533    0.0685 C   0  0  0  0  0  0  0  0  0  0  0  0
    1.0705   -0.2032    1.0173 C   0  0  0  0  0  0  0  0  0  0  0  0
    2.0767   -0.9491    0.1317 C   0  0  0  0  0  0  0  0  0  0  0  0
    2.9791    0.1331   -0.4543 C   0  0  0  0  0  0  0  0  0  0  0  0
    4.3003   -0.6990   -1.5996 Br  0  0  0  0  0  0  0  0  0  0  0  0
  1  2  1  0
  2  3  1  0
  3  4  1  0
  4  5  1  0
  5  6  1  0
  6  7  1  0
  7  8  1  0
  8  9  1  0
  9 10  1  0
A    1
0.000
A    2
0.000
A    3
0.000
A    4
0.000
A    5
0.000
A    6
0.000
A    7
0.000
A    8
0.000
A    9
0.236
A   10
-0.236
M  END
$$$$
