
     RDKit          3D

  7  6  0  0  0  0  0  0  0  0999 V2000
    3.0428    0.0157    0.8577 C   0  0  0  0  0  0  0  0  0  0  0  0
    1.7246   -0.4681    0.2794 C   0  0  0  0  0  0  0  0  0  0  0  0
    0.8084    0.7588    0.1955 C   0  0  0  0  0  0  0  0  0  0  0  0
   -0.4969    0.2513   -0.3828 C   0  0  0  0  0  0  0  0  0  0  0  0
   -1.7550    1.6996   -0.5460 Br  0  0  0  0  0  0  0  0  0  0  0  0
   -1.0052   -0.8520    0.5183 C   0  0  0  0  0  0  0  0  0  0  0  0
   -2.3187   -1.4053   -0.0108 C   0  0  0  0  0  0  0  0  0  0  0  0
  1  2  1  0
  2  3  1  0
  3  4  1  0
  4  5  1  0
  4  6  1  0
  6  7  1  0
A    1
0.000
A    2
0.000
A    3
0.000
A    4
0.270
A    5
-0.270
A    6
0.000
A    7
0.000
M  END
$$$$
