
     RDKit          3D

  8  7  0  0  0  0  0  0  0  0999 V2000
    1.8362    1.6530    0.8235 C   0  0  0  0  0  0  0  0  0  0  0  0
    0.9704    0.6663    0.0629 C   0  0  0  0  0  0  0  0  0  0  0  0
    2.0004   -0.0194   -1.4427 Br  0  0  0  0  0  0  0  0  0  0  0  0
    0.5656   -0.5080    0.9626 C   0  0  0  0  0  0  0  0  0  0  0  0
   -0.2861   -1.4101    0.0939 C   0  0  0  0  0  0  0  0  0  0  0  0
   -1.5102   -0.7333   -0.4334 C   0  0  0  0  0  0  0  0  0  0  0  0
   -2.4216   -0.2393    0.6641 C   0  0  0  0  0  0  0  0  0  0  0  0
   -1.1547    0.5909   -1.7668 Br  0  0  0  0  0  0  0  0  0  0  0  0
  1  2  1  0
  2  3  1  0
  2  4  1  0
  4  5  1  0
  5  6  1  0
  6  7  1  0
  6  8  1  0
A    1
0.000
A    2
0.270
A    3
-0.270
A    4
0.000
A    5
0.000
A    6
0.270
A    7
0.000
A    8
-0.270
M  END
$$$$
