
     RDKit          3D

  8  7  0  0  0  0  0  0  0  0999 V2000
    2.4369   -1.8220    0.1468 C   0  0  0  0  0  0  0  0  0  0  0  0
    2.3777   -0.6868   -0.8657 C   0  0  0  0  0  0  0  0  0  0  0  0
    0.9165   -0.2844   -0.9662 C   0  0  0  0  0  0  0  0  0  0  0  0
    0.3860    0.1744    0.3610 C   0  0  0  0  0  0  0  0  0  0  0  0
   -1.0790    0.5530    0.1514 C   0  0  0  0  0  0  0  0  0  0  0  0
   -1.9782   -1.0427   -0.4762 Br  0  0  0  0  0  0  0  0  0  0  0  0
   -1.8767    1.1606    1.8165 Br  0  0  0  0  0  0  0  0  0  0  0  0
   -1.1831    1.9479   -1.2035 Br  0  0  0  0  0  0  0  0  0  0  0  0
  1  2  1  0
  2  3  1  0
  3  4  1  0
  4  5  1  0
  5  6  1  0
  5  7  1  0
  5  8  1  0
A    1
0.000
A    2
0.000
A    3
0.000
A    4
0.000
A    5
0.588
A    6
-0.196
A    7
-0.196
A    8
-0.196
M  END
$$$$
