
     RDKit          3D

  5  4  0  0  0  0  0  0  0  0999 V2000
   -1.6529   -0.5927   -0.7362 C   0  0  0  0  0  0  0  0  0  0  0  0
   -0.8813   -0.6228    0.5606 C   0  0  0  0  0  0  0  0  0  0  0  0
    0.4150    0.0864    0.5203 C   0  0  0  0  0  0  0  0  0  0  0  0
    0.3260    1.9355    0.1073 Br  0  0  0  0  0  0  0  0  0  0  0  0
    1.7932   -0.8064   -0.4520 Br  0  0  0  0  0  0  0  0  0  0  0  0
  1  2  1  0
  2  3  1  0
  3  4  1  0
  3  5  1  0
A    1
0.000
A    2
0.000
A    3
0.438
A    4
-0.219
A    5
-0.219
M  END
$$$$
