
     RDKit          3D

  6  5  0  0  0  0  0  0  0  0999 V2000
    2.6518   -0.5108   -0.3744 Br  0  0  0  0  0  0  0  0  0  0  0  0
    0.7297   -0.7901   -0.5263 C   0  0  0  0  0  0  0  0  0  0  0  0
    0.0504    0.1543    0.3796 C   0  0  0  0  0  0  0  0  0  0  0  0
    0.3209    1.9875    0.1032 Br  0  0  0  0  0  0  0  0  0  0  0  0
   -1.2561   -0.2641    0.9330 C   0  0  0  0  0  0  0  0  0  0  0  0
   -2.4967   -0.5769   -0.5151 Br  0  0  0  0  0  0  0  0  0  0  0  0
  1  2  1  0
  2  3  1  0
  3  4  1  0
  3  5  1  0
  5  6  1  0
A    1
-0.236
A    2
0.236
A    3
0.270
A    4
-0.270
A    5
0.236
A    6
-0.236
M  END
$$$$
