
     RDKit          3D

  7  6  0  0  0  0  0  0  0  0999 V2000
   -2.2667    0.6895   -0.3277 C   0  0  0  0  0  0  0  0  0  0  0  0
   -1.4510    0.1429    0.8523 C   0  0  0  0  0  0  0  0  0  0  0  0
   -0.2586   -0.5159    0.3186 C   0  0  0  0  0  0  0  0  0  0  0  0
   -0.4876   -1.9642   -0.8497 Br  0  0  0  0  0  0  0  0  0  0  0  0
    1.0001    0.2117    0.2863 C   0  0  0  0  0  0  0  0  0  0  0  0
    2.5142   -0.6533   -0.4020 Br  0  0  0  0  0  0  0  0  0  0  0  0
    0.9496    2.0894    0.1222 Br  0  0  0  0  0  0  0  0  0  0  0  0
  1  2  1  0
  2  3  1  0
  3  4  1  0
  3  5  1  0
  5  6  1  0
  5  7  1  0
A    1
0.000
A    2
0.000
A    3
0.270
A    4
-0.270
A    5
0.438
A    6
-0.219
A    7
-0.219
M  END
$$$$
