
     RDKit          3D

  5  4  0  0  0  0  0  0  0  0999 V2000
   -0.6986    1.3603   -0.2577 C   0  0  0  0  0  0  0  0  0  0  0  0
   -0.0821    0.0187    0.0033 C   0  0  0  0  0  0  0  0  0  0  0  0
   -0.5781   -0.5509    1.3098 C   0  0  0  0  0  0  0  0  0  0  0  0
   -0.4870   -0.9347   -1.0913 C   0  0  0  0  0  0  0  0  0  0  0  0
    1.8458    0.1066    0.0358 Br  0  0  0  0  0  0  0  0  0  0  0  0
  1  2  1  0
  2  3  1  0
  2  4  1  0
  2  5  1  0
A    1
0.000
A    2
0.276
A    3
0.000
A    4
0.000
A    5
-0.276
M  END
$$$$
