
     RDKit          3D

  6  5  0  0  0  0  0  0  0  0999 V2000
   -1.6966   -0.3984   -1.0865 C   0  0  0  0  0  0  0  0  0  0  0  0
   -0.7423   -0.4840    0.0648 C   0  0  0  0  0  0  0  0  0  0  0  0
   -1.2374    0.6381    1.5391 Br  0  0  0  0  0  0  0  0  0  0  0  0
    0.6895   -0.3094   -0.3622 C   0  0  0  0  0  0  0  0  0  0  0  0
    1.0731    1.3427   -1.1943 Br  0  0  0  0  0  0  0  0  0  0  0  0
    1.9136   -0.7889    1.0390 Br  0  0  0  0  0  0  0  0  0  0  0  0
  1  2  1  0
  2  3  1  0
  2  4  1  0
  4  5  1  0
  4  6  1  0
A    1
0.000
A    2
0.270
A    3
-0.270
A    4
0.438
A    5
-0.219
A    6
-0.219
M  END
$$$$
