
     RDKit          3D

  6  5  0  0  0  0  0  0  0  0999 V2000
    1.5917    1.3168   -0.5262 Br  0  0  0  0  0  0  0  0  0  0  0  0
    1.3482   -0.5619   -0.3340 C   0  0  0  0  0  0  0  0  0  0  0  0
    0.0124   -1.0730   -0.7965 C   0  0  0  0  0  0  0  0  0  0  0  0
   -1.0784   -0.4237    0.0006 C   0  0  0  0  0  0  0  0  0  0  0  0
   -1.0086    1.4863   -0.2558 Br  0  0  0  0  0  0  0  0  0  0  0  0
   -0.8653   -0.7445    1.9120 Br  0  0  0  0  0  0  0  0  0  0  0  0
  1  2  1  0
  2  3  1  0
  3  4  1  0
  4  5  1  0
  4  6  1  0
A    1
-0.236
A    2
0.236
A    3
0.000
A    4
0.438
A    5
-0.219
A    6
-0.219
M  END
$$$$
