
     RDKit          3D

  6  5  0  0  0  0  0  0  0  0999 V2000
    1.9455    0.2897    0.6194 C   0  0  0  0  0  0  0  0  0  0  0  0
    1.5135   -0.6391   -0.4786 C   0  0  0  0  0  0  0  0  0  0  0  0
    0.3819   -0.0672   -1.3106 C   0  0  0  0  0  0  0  0  0  0  0  0
   -0.8438    0.2275   -0.5449 C   0  0  0  0  0  0  0  0  0  0  0  0
   -0.7591    1.1885    0.5527 C   0  0  0  0  0  0  0  0  0  0  0  0
   -2.2380   -0.9994   -0.5820 Br  0  0  0  0  0  0  0  0  0  0  0  0
  1  2  1  0
  2  3  1  0
  3  4  1  0
  4  5  1  0
  4  6  1  0
A    1
0.000
A    2
0.000
A    3
0.000
A    4
0.270
A    5
0.000
A    6
-0.270
M  END
$$$$
