
     RDKit          3D

  7  6  0  0  0  0  0  0  0  0999 V2000
    2.2988    0.2112    0.4125 C   0  0  0  0  0  0  0  0  0  0  0  0
    1.5042   -1.0253   -0.0014 C   0  0  0  0  0  0  0  0  0  0  0  0
    0.3060   -0.6917   -0.8239 C   0  0  0  0  0  0  0  0  0  0  0  0
   -0.6869    0.1954   -0.1476 C   0  0  0  0  0  0  0  0  0  0  0  0
   -1.8343    0.4292   -1.1257 C   0  0  0  0  0  0  0  0  0  0  0  0
   -0.1115    1.5300    0.2673 C   0  0  0  0  0  0  0  0  0  0  0  0
   -1.4762   -0.6487    1.4187 Br  0  0  0  0  0  0  0  0  0  0  0  0
  1  2  1  0
  2  3  1  0
  3  4  1  0
  4  5  1  0
  4  6  1  0
  4  7  1  0
A    1
0.000
A    2
0.000
A    3
0.000
A    4
0.276
A    5
0.000
A    6
0.000
A    7
-0.276
M  END
$$$$
