
     RDKit          3D

  8  7  0  0  0  0  0  0  0  0999 V2000
   -2.3027    0.7055    0.3728 C   0  0  0  0  0  0  0  0  0  0  0  0
   -1.2660   -0.0172   -0.4419 C   0  0  0  0  0  0  0  0  0  0  0  0
   -1.7890   -1.2939   -1.0018 C   0  0  0  0  0  0  0  0  0  0  0  0
    0.0188   -0.2523    0.3272 C   0  0  0  0  0  0  0  0  0  0  0  0
    0.9796   -0.9755   -0.5718 C   0  0  0  0  0  0  0  0  0  0  0  0
    2.6578   -1.3401    0.2780 Br  0  0  0  0  0  0  0  0  0  0  0  0
    0.6449    1.0354    0.7798 C   0  0  0  0  0  0  0  0  0  0  0  0
    1.0566    2.1382   -0.7783 Br  0  0  0  0  0  0  0  0  0  0  0  0
  1  2  1  0
  2  3  1  0
  2  4  1  0
  4  5  1  0
  5  6  1  0
  4  7  1  0
  7  8  1  0
A    1
0.000
A    2
0.000
A    3
0.000
A    4
0.000
A    5
0.236
A    6
-0.236
A    7
0.236
A    8
-0.236
M  END
$$$$
