
     RDKit          3D

  7  6  0  0  0  0  0  0  0  0999 V2000
   -0.0568    1.3967   -0.3303 C   0  0  0  0  0  0  0  0  0  0  0  0
   -0.7841    0.1089   -0.1036 C   0  0  0  0  0  0  0  0  0  0  0  0
   -2.1698    0.2931    0.4681 C   0  0  0  0  0  0  0  0  0  0  0  0
   -0.9560   -0.6214   -1.4312 C   0  0  0  0  0  0  0  0  0  0  0  0
    0.0873   -0.7294    0.8182 C   0  0  0  0  0  0  0  0  0  0  0  0
    1.4282   -1.0167    0.2368 C   0  0  0  0  0  0  0  0  0  0  0  0
    2.4512    0.5688   -0.1465 Br  0  0  0  0  0  0  0  0  0  0  0  0
  1  2  1  0
  2  3  1  0
  2  4  1  0
  2  5  1  0
  5  6  1  0
  6  7  1  0
A    1
0.000
A    2
0.000
A    3
0.000
A    4
0.000
A    5
0.000
A    6
0.236
A    7
-0.236
M  END
$$$$
