
     RDKit          3D

  7  6  0  0  0  0  0  0  0  0999 V2000
   -0.9486    1.2538    0.7433 C   0  0  0  0  0  0  0  0  0  0  0  0
   -0.7415    0.4073   -0.5031 C   0  0  0  0  0  0  0  0  0  0  0  0
   -2.0841   -0.2889   -0.7564 C   0  0  0  0  0  0  0  0  0  0  0  0
    0.2410   -0.7018   -0.1411 C   0  0  0  0  0  0  0  0  0  0  0  0
   -0.3838   -1.4952    0.9713 C   0  0  0  0  0  0  0  0  0  0  0  0
    1.5724   -0.1136    0.2991 C   0  0  0  0  0  0  0  0  0  0  0  0
    2.3445    0.9384   -1.1017 Br  0  0  0  0  0  0  0  0  0  0  0  0
  1  2  1  0
  2  3  1  0
  2  4  1  0
  4  5  1  0
  4  6  1  0
  6  7  1  0
A    1
0.000
A    2
0.000
A    3
0.000
A    4
0.000
A    5
0.000
A    6
0.236
A    7
-0.236
M  END
$$$$
