
     RDKit          3D

  8  7  0  0  0  0  0  0  0  0999 V2000
    1.5589    1.5001    0.0485 C   0  0  0  0  0  0  0  0  0  0  0  0
    2.1695    0.1436   -0.2593 C   0  0  0  0  0  0  0  0  0  0  0  0
    1.1212   -0.7641   -0.8555 C   0  0  0  0  0  0  0  0  0  0  0  0
    0.0140   -0.9008    0.1704 C   0  0  0  0  0  0  0  0  0  0  0  0
   -1.3273   -2.0713   -0.6108 Br  0  0  0  0  0  0  0  0  0  0  0  0
   -0.6149    0.4520    0.3734 C   0  0  0  0  0  0  0  0  0  0  0  0
   -1.7336    0.3936    1.3886 C   0  0  0  0  0  0  0  0  0  0  0  0
   -1.1876    1.2468   -1.2913 Br  0  0  0  0  0  0  0  0  0  0  0  0
  1  2  1  0
  2  3  1  0
  3  4  1  0
  4  5  1  0
  4  6  1  0
  6  7  1  0
  6  8  1  0
A    1
0.000
A    2
0.000
A    3
0.000
A    4
0.270
A    5
-0.270
A    6
0.270
A    7
0.000
A    8
-0.270
M  END
$$$$
