
     RDKit          3D

  6  5  0  0  0  0  0  0  0  0999 V2000
   -2.2997   -0.5363   -0.4819 C   0  0  0  0  0  0  0  0  0  0  0  0
   -0.7963   -0.8014   -0.5085 C   0  0  0  0  0  0  0  0  0  0  0  0
   -0.1310    0.2320    0.3074 C   0  0  0  0  0  0  0  0  0  0  0  0
   -0.3295    2.0215   -0.1801 Br  0  0  0  0  0  0  0  0  0  0  0  0
    1.0926   -0.1581    1.0311 C   0  0  0  0  0  0  0  0  0  0  0  0
    2.4639   -0.7577   -0.1680 Br  0  0  0  0  0  0  0  0  0  0  0  0
  1  2  1  0
  2  3  1  0
  3  4  1  0
  3  5  1  0
  5  6  1  0
A    1
0.000
A    2
0.000
A    3
0.270
A    4
-0.270
A    5
0.236
A    6
-0.236
M  END
$$$$
