
     RDKit          3D

  5  4  0  0  0  0  0  0  0  0999 V2000
   -1.7636   -0.9945   -0.0489 C   0  0  0  0  0  0  0  0  0  0  0  0
   -0.5395   -0.2030   -0.1551 C   0  0  0  0  0  0  0  0  0  0  0  0
   -0.6453    1.6626   -0.1019 Br  0  0  0  0  0  0  0  0  0  0  0  0
    0.7341   -0.8278    0.2595 C   0  0  0  0  0  0  0  0  0  0  0  0
    2.2142    0.3626    0.0465 Br  0  0  0  0  0  0  0  0  0  0  0  0
  1  2  1  0
  2  3  1  0
  2  4  1  0
  4  5  1  0
A    1
0.000
A    2
0.270
A    3
-0.270
A    4
0.236
A    5
-0.236
M  END
$$$$
