
     RDKit          3D

  4  3  0  0  0  0  0  0  0  0999 V2000
   -1.6663    0.7998    0.1711 Br  0  0  0  0  0  0  0  0  0  0  0  0
   -0.6891   -0.7880   -0.3400 C   0  0  0  0  0  0  0  0  0  0  0  0
    0.6714   -0.7847    0.3446 C   0  0  0  0  0  0  0  0  0  0  0  0
    1.6840    0.7729   -0.1757 Br  0  0  0  0  0  0  0  0  0  0  0  0
  1  2  1  0
  2  3  1  0
  3  4  1  0
A    1
-0.236
A    2
0.236
A    3
0.236
A    4
-0.236
M  END
$$$$
