
     RDKit          3D

  7  6  0  0  0  0  0  0  0  0999 V2000
    2.5605    0.1919    0.8279 C   0  0  0  0  0  0  0  0  0  0  0  0
    1.2923    0.4640    0.0706 C   0  0  0  0  0  0  0  0  0  0  0  0
    0.7860   -0.7506   -0.6323 C   0  0  0  0  0  0  0  0  0  0  0  0
   -0.4780   -0.4605   -1.3814 C   0  0  0  0  0  0  0  0  0  0  0  0
   -1.5223    0.0099   -0.3910 C   0  0  0  0  0  0  0  0  0  0  0  0
   -1.7298   -1.0967    0.6075 C   0  0  0  0  0  0  0  0  0  0  0  0
   -0.9086    1.6419    0.4101 Br  0  0  0  0  0  0  0  0  0  0  0  0
  1  2  1  0
  2  3  1  0
  3  4  1  0
  4  5  1  0
  5  6  1  0
  5  7  1  0
A    1
0.000
A    2
0.000
A    3
0.000
A    4
0.000
A    5
0.270
A    6
0.000
A    7
-0.270
M  END
$$$$
