
     RDKit          3D

 14 13  0  0  0  0  0  0  0  0999 V2000
   -0.6210   -1.2878   -0.1884 C   0  0  0  0  0  0  0  0  0  0  0  0
   -0.1366    0.0029    0.4505 C   0  0  0  0  0  0  0  0  0  0  0  0
    1.3609    0.0510    0.4692 C   0  0  0  0  0  0  0  0  0  0  0  0
   -0.6705    1.1365   -0.4268 C   0  0  0  0  0  0  0  0  0  0  0  0
   -0.2961    2.3575    0.0518 F   0  0  0  0  0  0  0  0  0  0  0  0
   -0.1412   -2.1746    0.2477 H   0  0  0  0  0  0  0  0  0  0  0  0
   -0.4143   -1.1763   -1.2850 H   0  0  0  0  0  0  0  0  0  0  0  0
   -1.7213   -1.3242   -0.0857 H   0  0  0  0  0  0  0  0  0  0  0  0
   -0.5245    0.1124    1.4896 H   0  0  0  0  0  0  0  0  0  0  0  0
    1.8243   -0.9355    0.6673 H   0  0  0  0  0  0  0  0  0  0  0  0
    1.7320    0.8494    1.1240 H   0  0  0  0  0  0  0  0  0  0  0  0
    1.6855    0.3305   -0.5717 H   0  0  0  0  0  0  0  0  0  0  0  0
   -0.3021    0.9407   -1.4639 H   0  0  0  0  0  0  0  0  0  0  0  0
   -1.7752    1.1176   -0.4787 H   0  0  0  0  0  0  0  0  0  0  0  0
  1  2  1  0
  2  3  1  0
  2  4  1  0
  4  5  1  0
  1  6  1  0
  1  7  1  0
  1  8  1  0
  2  9  1  0
  3 10  1  0
  3 11  1  0
  3 12  1  0
  4 13  1  0
  4 14  1  0
A    1
-0.360713
A    2
0.070676
A    3
-0.360639
A    4
0.082124
A    5
-0.211885
A    6
0.108938
A    7
0.103766
A    8
0.101553
A    9
0.054483
A   10
0.105462
A   11
0.103409
A   12
0.101911
A   13
0.053177
A   14
0.047737
M  END
