
     RDKit          3D

 14 13  0  0  0  0  0  0  0  0999 V2000
   -0.5208    0.6511    0.2306 C   0  0  0  0  0  0  0  0  0  0  0  0
   -1.9154    0.0167    0.2339 C   0  0  0  0  0  0  0  0  0  0  0  0
    0.4575   -0.4735    0.1107 C   0  0  0  0  0  0  0  0  0  0  0  0
    1.8925   -0.0280    0.0915 C   0  0  0  0  0  0  0  0  0  0  0  0
    2.2088    0.8061   -0.9303 F   0  0  0  0  0  0  0  0  0  0  0  0
    2.2004    0.4906    1.3446 F   0  0  0  0  0  0  0  0  0  0  0  0
    2.6546   -1.1941   -0.0696 F   0  0  0  0  0  0  0  0  0  0  0  0
   -0.4512    1.2442   -0.7238 H   0  0  0  0  0  0  0  0  0  0  0  0
   -0.3432    1.2566    1.1157 H   0  0  0  0  0  0  0  0  0  0  0  0
   -2.1839   -0.2193    1.2953 H   0  0  0  0  0  0  0  0  0  0  0  0
   -1.8860   -0.9593   -0.2890 H   0  0  0  0  0  0  0  0  0  0  0  0
   -2.6477    0.6406   -0.2774 H   0  0  0  0  0  0  0  0  0  0  0  0
    0.3189   -1.1523    0.9673 H   0  0  0  0  0  0  0  0  0  0  0  0
    0.2155   -1.0794   -0.8024 H   0  0  0  0  0  0  0  0  0  0  0  0
  1  2  1  0
  1  3  1  0
  3  4  1  0
  4  5  1  0
  4  6  1  0
  4  7  1  0
  1  8  1  0
  1  9  1  0
  2 10  1  0
  2 11  1  0
  2 12  1  0
  3 13  1  0
  3 14  1  0
A    1
-0.048258
A    2
-0.321478
A    3
-0.362982
A    4
0.798901
A    5
-0.265000
A    6
-0.265087
A    7
-0.273920
A    8
0.072025
A    9
0.072642
A   10
0.101290
A   11
0.101344
A   12
0.102854
A   13
0.143643
A   14
0.144024
M  END
