
     RDKit          3D

  8  7  0  0  0  0  0  0  0  0999 V2000
   -0.7864    0.0724   -0.1311 C   0  0  0  0  0  0  0  0  0  0  0  0
    0.7052   -0.0776    0.1350 C   0  0  0  0  0  0  0  0  0  0  0  0
    1.2890   -0.8022   -0.8810 F   0  0  0  0  0  0  0  0  0  0  0  0
    1.3374    1.1574    0.1607 F   0  0  0  0  0  0  0  0  0  0  0  0
    0.8427   -0.7121    1.3425 F   0  0  0  0  0  0  0  0  0  0  0  0
   -0.9555    1.0660   -0.5628 H   0  0  0  0  0  0  0  0  0  0  0  0
   -1.3553   -0.0093    0.8058 H   0  0  0  0  0  0  0  0  0  0  0  0
   -1.0772   -0.6945   -0.8691 H   0  0  0  0  0  0  0  0  0  0  0  0
  1  2  1  0
  2  3  1  0
  2  4  1  0
  2  5  1  0
  1  6  1  0
  1  7  1  0
  1  8  1  0
A    1
-0.584113
A    2
0.860467
A    3
-0.276061
A    4
-0.275298
A    5
-0.275149
A    6
0.183246
A    7
0.183360
A    8
0.183548
M  END
