
     RDKit          3D

  5  4  0  0  0  0  0  0  0  0999 V2000
   -0.0524   -0.0120    0.0160 C   0  0  0  0  0  0  0  0  0  0  0  0
    1.3238   -0.1464   -0.1423 F   0  0  0  0  0  0  0  0  0  0  0  0
   -0.3175    0.0493    1.0931 H   0  0  0  0  0  0  0  0  0  0  0  0
   -0.3465    0.9303   -0.4647 H   0  0  0  0  0  0  0  0  0  0  0  0
   -0.6073   -0.8212   -0.5021 H   0  0  0  0  0  0  0  0  0  0  0  0
  1  2  1  0
  1  3  1  0
  1  4  1  0
  1  5  1  0
A    1
-0.068268
A    2
-0.180556
A    3
0.082662
A    4
0.083152
A    5
0.083010
M  END
