
     RDKit          3D

 17 16  0  0  0  0  0  0  0  0999 V2000
    0.7620   -0.3519   -0.5989 C   0  0  0  0  0  0  0  0  0  0  0  0
    2.2392   -0.0857   -0.6379 C   0  0  0  0  0  0  0  0  0  0  0  0
    0.2214    0.0363    0.7616 C   0  0  0  0  0  0  0  0  0  0  0  0
   -1.2707   -0.2178    0.8420 C   0  0  0  0  0  0  0  0  0  0  0  0
   -2.0281    0.5806   -0.1990 C   0  0  0  0  0  0  0  0  0  0  0  0
   -1.4470   -1.5843    0.6638 F   0  0  0  0  0  0  0  0  0  0  0  0
   -1.7575    0.0882    2.0966 F   0  0  0  0  0  0  0  0  0  0  0  0
    0.2080    0.2495   -1.3569 H   0  0  0  0  0  0  0  0  0  0  0  0
    0.5075   -1.4169   -0.8342 H   0  0  0  0  0  0  0  0  0  0  0  0
    2.6164    0.2250    0.3651 H   0  0  0  0  0  0  0  0  0  0  0  0
    2.8372   -0.9792   -0.9219 H   0  0  0  0  0  0  0  0  0  0  0  0
    2.4763    0.7863   -1.3109 H   0  0  0  0  0  0  0  0  0  0  0  0
    0.4828    1.0826    0.9561 H   0  0  0  0  0  0  0  0  0  0  0  0
    0.7223   -0.6148    1.5033 H   0  0  0  0  0  0  0  0  0  0  0  0
   -2.9512    0.9669    0.2574 H   0  0  0  0  0  0  0  0  0  0  0  0
   -1.3500    1.3846   -0.5584 H   0  0  0  0  0  0  0  0  0  0  0  0
   -2.2685   -0.1495   -1.0277 H   0  0  0  0  0  0  0  0  0  0  0  0
  1  2  1  0
  1  3  1  0
  3  4  1  0
  4  5  1  0
  4  6  1  0
  4  7  1  0
  1  8  1  0
  1  9  1  0
  2 10  1  0
  2 11  1  0
  2 12  1  0
  3 13  1  0
  3 14  1  0
  5 15  1  0
  5 16  1  0
  5 17  1  0
A    1
-0.054841
A    2
-0.320092
A    3
-0.300190
A    4
0.602976
A    5
-0.504185
A    6
-0.256493
A    7
-0.265695
A    8
0.064723
A    9
0.069529
A   10
0.100480
A   11
0.098386
A   12
0.098135
A   13
0.110289
A   14
0.111076
A   15
0.151252
A   16
0.149386
A   17
0.145263
M  END
