
     RDKit          3D

 29 28  0  0  0  0  0  0  0  0999 V2000
   -3.9770    0.1496   -0.4580 C   0  0  0  0  0  0  0  0  0  0  0  0
   -3.2828    1.0100    0.5616 C   0  0  0  0  0  0  0  0  0  0  0  0
   -1.7743    0.8335    0.4118 C   0  0  0  0  0  0  0  0  0  0  0  0
   -1.3795   -0.5983    0.6276 C   0  0  0  0  0  0  0  0  0  0  0  0
    0.1133   -0.7988    0.4891 C   0  0  0  0  0  0  0  0  0  0  0  0
    0.6555   -0.4320   -0.8426 C   0  0  0  0  0  0  0  0  0  0  0  0
    2.1438   -0.6920   -0.8698 C   0  0  0  0  0  0  0  0  0  0  0  0
    2.8914    0.1085    0.1678 C   0  0  0  0  0  0  0  0  0  0  0  0
    4.3825   -0.2135    0.0470 C   0  0  0  0  0  0  0  0  0  0  0  0
    5.0472    0.5174    0.9915 F   0  0  0  0  0  0  0  0  0  0  0  0
    4.8543    0.1365   -1.1967 F   0  0  0  0  0  0  0  0  0  0  0  0
   -3.5675    0.3292   -1.4791 H   0  0  0  0  0  0  0  0  0  0  0  0
   -3.9349   -0.9270   -0.2395 H   0  0  0  0  0  0  0  0  0  0  0  0
   -5.0646    0.4146   -0.4967 H   0  0  0  0  0  0  0  0  0  0  0  0
   -3.5954    0.7190    1.5645 H   0  0  0  0  0  0  0  0  0  0  0  0
   -3.5214    2.0707    0.3085 H   0  0  0  0  0  0  0  0  0  0  0  0
   -1.2839    1.4577    1.1668 H   0  0  0  0  0  0  0  0  0  0  0  0
   -1.4500    1.1782   -0.5992 H   0  0  0  0  0  0  0  0  0  0  0  0
   -1.6194   -0.8337    1.7040 H   0  0  0  0  0  0  0  0  0  0  0  0
   -1.9357   -1.2921   -0.0452 H   0  0  0  0  0  0  0  0  0  0  0  0
    0.5748   -0.0971    1.2438 H   0  0  0  0  0  0  0  0  0  0  0  0
    0.3642   -1.8440    0.7146 H   0  0  0  0  0  0  0  0  0  0  0  0
    0.4554    0.6598   -1.0339 H   0  0  0  0  0  0  0  0  0  0  0  0
    0.1364   -0.9655   -1.6602 H   0  0  0  0  0  0  0  0  0  0  0  0
    2.3689   -1.7674   -0.6378 H   0  0  0  0  0  0  0  0  0  0  0  0
    2.5678   -0.5344   -1.8898 H   0  0  0  0  0  0  0  0  0  0  0  0
    2.5598   -0.2898    1.1723 H   0  0  0  0  0  0  0  0  0  0  0  0
    2.7261    1.1986    0.0967 H   0  0  0  0  0  0  0  0  0  0  0  0
    4.5452   -1.3022    0.1809 H   0  0  0  0  0  0  0  0  0  0  0  0
  1  2  1  0
  2  3  1  0
  3  4  1  0
  4  5  1  0
  5  6  1  0
  6  7  1  0
  7  8  1  0
  8  9  1  0
  9 10  1  0
  9 11  1  0
  1 12  1  0
  1 13  1  0
  1 14  1  0
  2 15  1  0
  2 16  1  0
  3 17  1  0
  3 18  1  0
  4 19  1  0
  4 20  1  0
  5 21  1  0
  5 22  1  0
  6 23  1  0
  6 24  1  0
  7 25  1  0
  7 26  1  0
  8 27  1  0
  8 28  1  0
  9 29  1  0
A    1
-0.325090
A    2
-0.073236
A    3
-0.125712
A    4
-0.125111
A    5
-0.126115
A    6
-0.119798
A    7
-0.111984
A    8
-0.265536
A    9
0.456650
A   10
-0.250944
A   11
-0.241788
A   12
0.095961
A   13
0.094844
A   14
0.095831
A   15
0.059459
A   16
0.056127
A   17
0.060613
A   18
0.064477
A   19
0.061457
A   20
0.064607
A   21
0.064556
A   22
0.063875
A   23
0.067069
A   24
0.066499
A   25
0.068672
A   26
0.068919
A   27
0.102978
A   28
0.109484
A   29
0.043236
M  END
