
     RDKit          3D

 14 13  0  0  0  0  0  0  0  0999 V2000
   -1.8906   -0.0635   -0.1987 C   0  0  0  0  0  0  0  0  0  0  0  0
   -0.5461   -0.4559    0.3701 C   0  0  0  0  0  0  0  0  0  0  0  0
    0.4937    0.4168   -0.2525 C   0  0  0  0  0  0  0  0  0  0  0  0
    1.8904    0.1167    0.2413 C   0  0  0  0  0  0  0  0  0  0  0  0
    2.7673    0.9725   -0.3919 F   0  0  0  0  0  0  0  0  0  0  0  0
    2.2374   -1.1711   -0.1121 F   0  0  0  0  0  0  0  0  0  0  0  0
   -2.5913    0.2368    0.6227 H   0  0  0  0  0  0  0  0  0  0  0  0
   -1.8199    0.8302   -0.8684 H   0  0  0  0  0  0  0  0  0  0  0  0
   -2.3369   -0.8664   -0.8179 H   0  0  0  0  0  0  0  0  0  0  0  0
   -0.5350   -0.4687    1.4653 H   0  0  0  0  0  0  0  0  0  0  0  0
   -0.3467   -1.5134    0.0275 H   0  0  0  0  0  0  0  0  0  0  0  0
    0.2341    1.4744   -0.0526 H   0  0  0  0  0  0  0  0  0  0  0  0
    0.4421    0.2762   -1.3509 H   0  0  0  0  0  0  0  0  0  0  0  0
    2.0014    0.2156    1.3182 H   0  0  0  0  0  0  0  0  0  0  0  0
  1  2  1  0
  2  3  1  0
  3  4  1  0
  4  5  1  0
  4  6  1  0
  1  7  1  0
  1  8  1  0
  1  9  1  0
  2 10  1  0
  2 11  1  0
  3 12  1  0
  3 13  1  0
  4 14  1  0
A    1
-0.320541
A    2
-0.062261
A    3
-0.268780
A    4
0.454351
A    5
-0.250253
A    6
-0.242737
A    7
0.098247
A    8
0.098955
A    9
0.100259
A   10
0.064621
A   11
0.068258
A   12
0.107168
A   13
0.108687
A   14
0.044028
M  END
