
     RDKit          3D

 20 19  0  0  0  0  0  0  0  0999 V2000
   -2.8845   -0.1805    0.5697 C   0  0  0  0  0  0  0  0  0  0  0  0
   -1.7415   -0.4761   -0.3664 C   0  0  0  0  0  0  0  0  0  0  0  0
   -0.4563    0.2271    0.0940 C   0  0  0  0  0  0  0  0  0  0  0  0
    0.6241   -0.1020   -0.8635 C   0  0  0  0  0  0  0  0  0  0  0  0
    1.9516    0.4982   -0.5744 C   0  0  0  0  0  0  0  0  0  0  0  0
    2.5547    0.1252    0.7315 C   0  0  0  0  0  0  0  0  0  0  0  0
    1.8311    0.4607    1.8315 F   0  0  0  0  0  0  0  0  0  0  0  0
    2.8854   -1.2308    0.7074 F   0  0  0  0  0  0  0  0  0  0  0  0
   -3.3794    0.7848    0.3569 H   0  0  0  0  0  0  0  0  0  0  0  0
   -2.4466   -0.1099    1.6026 H   0  0  0  0  0  0  0  0  0  0  0  0
   -3.6100   -1.0219    0.4884 H   0  0  0  0  0  0  0  0  0  0  0  0
   -1.9618   -0.1599   -1.4161 H   0  0  0  0  0  0  0  0  0  0  0  0
   -1.5686   -1.5522   -0.3666 H   0  0  0  0  0  0  0  0  0  0  0  0
   -0.2812   -0.0744    1.1256 H   0  0  0  0  0  0  0  0  0  0  0  0
   -0.6908    1.3209    0.0186 H   0  0  0  0  0  0  0  0  0  0  0  0
    0.7579   -1.2226   -0.8825 H   0  0  0  0  0  0  0  0  0  0  0  0
    0.3112    0.1672   -1.8922 H   0  0  0  0  0  0  0  0  0  0  0  0
    2.6888    0.2699   -1.3713 H   0  0  0  0  0  0  0  0  0  0  0  0
    1.8661    1.6256   -0.5868 H   0  0  0  0  0  0  0  0  0  0  0  0
    3.5499    0.6507    0.7936 H   0  0  0  0  0  0  0  0  0  0  0  0
  1  2  1  0
  2  3  1  0
  3  4  1  0
  4  5  1  0
  5  6  1  0
  6  7  1  0
  6  8  1  0
  1  9  1  0
  1 10  1  0
  1 11  1  0
  2 12  1  0
  2 13  1  0
  3 14  1  0
  3 15  1  0
  4 16  1  0
  4 17  1  0
  5 18  1  0
  5 19  1  0
  6 20  1  0
A    1
-0.326062
A    2
-0.073520
A    3
-0.131242
A    4
-0.103598
A    5
-0.262846
A    6
0.458280
A    7
-0.238570
A    8
-0.239099
A    9
0.096552
A   10
0.096986
A   11
0.093059
A   12
0.057197
A   13
0.061880
A   14
0.068355
A   15
0.065749
A   16
0.070152
A   17
0.069197
A   18
0.098413
A   19
0.106194
A   20
0.032925
M  END
