
     RDKit          3D

 11 10  0  0  0  0  0  0  0  0999 V2000
   -1.2193   -0.2056   -0.3069 C   0  0  0  0  0  0  0  0  0  0  0  0
   -0.0064    0.6570   -0.0418 C   0  0  0  0  0  0  0  0  0  0  0  0
    1.1605   -0.2866    0.2447 C   0  0  0  0  0  0  0  0  0  0  0  0
    2.2846    0.4682    0.4911 F   0  0  0  0  0  0  0  0  0  0  0  0
    0.8558   -1.0210    1.3814 F   0  0  0  0  0  0  0  0  0  0  0  0
   -1.1896   -0.4635   -1.3937 H   0  0  0  0  0  0  0  0  0  0  0  0
   -1.1115   -1.1459    0.2561 H   0  0  0  0  0  0  0  0  0  0  0  0
   -2.1633    0.2982   -0.0249 H   0  0  0  0  0  0  0  0  0  0  0  0
    0.2246    1.3546   -0.8501 H   0  0  0  0  0  0  0  0  0  0  0  0
   -0.1386    1.2638    0.8880 H   0  0  0  0  0  0  0  0  0  0  0  0
    1.3032   -0.9193   -0.6440 H   0  0  0  0  0  0  0  0  0  0  0  0
  1  2  1  0
  2  3  1  0
  3  4  1  0
  3  5  1  0
  1  6  1  0
  1  7  1  0
  1  8  1  0
  2  9  1  0
  2 10  1  0
  3 11  1  0
A    1
-0.312548
A    2
-0.216112
A    3
0.456299
A    4
-0.253207
A    5
-0.242457
A    6
0.102062
A    7
0.104336
A    8
0.108988
A    9
0.102848
A   10
0.105493
A   11
0.044298
M  END
