
     RDKit          3D

 23 22  0  0  0  0  0  0  0  0999 V2000
   -3.2133   -0.7976   -0.9208 C   0  0  0  0  0  0  0  0  0  0  0  0
   -2.3794   -0.2068    0.1727 C   0  0  0  0  0  0  0  0  0  0  0  0
   -0.9663    0.0795   -0.3345 C   0  0  0  0  0  0  0  0  0  0  0  0
   -0.1285    0.6700    0.7540 C   0  0  0  0  0  0  0  0  0  0  0  0
    1.2722    0.9847    0.3363 C   0  0  0  0  0  0  0  0  0  0  0  0
    1.9486   -0.2712   -0.1133 C   0  0  0  0  0  0  0  0  0  0  0  0
    3.3786   -0.0243   -0.5476 C   0  0  0  0  0  0  0  0  0  0  0  0
    3.8800   -1.2719   -0.9372 F   0  0  0  0  0  0  0  0  0  0  0  0
    4.1624    0.4145    0.5010 F   0  0  0  0  0  0  0  0  0  0  0  0
   -2.8044   -0.6710   -1.9275 H   0  0  0  0  0  0  0  0  0  0  0  0
   -3.3335   -1.8958   -0.7581 H   0  0  0  0  0  0  0  0  0  0  0  0
   -4.2326   -0.3727   -0.9082 H   0  0  0  0  0  0  0  0  0  0  0  0
   -2.2632   -0.9488    0.9936 H   0  0  0  0  0  0  0  0  0  0  0  0
   -2.8345    0.7423    0.5499 H   0  0  0  0  0  0  0  0  0  0  0  0
   -1.0934    0.7550   -1.2058 H   0  0  0  0  0  0  0  0  0  0  0  0
   -0.5698   -0.8970   -0.6829 H   0  0  0  0  0  0  0  0  0  0  0  0
   -0.1711   -0.0154    1.6255 H   0  0  0  0  0  0  0  0  0  0  0  0
   -0.5966    1.6264    1.1124 H   0  0  0  0  0  0  0  0  0  0  0  0
    1.3437    1.7856   -0.4080 H   0  0  0  0  0  0  0  0  0  0  0  0
    1.8657    1.3568    1.2226 H   0  0  0  0  0  0  0  0  0  0  0  0
    1.4108   -0.6615   -1.0255 H   0  0  0  0  0  0  0  0  0  0  0  0
    1.9096   -1.0447    0.6498 H   0  0  0  0  0  0  0  0  0  0  0  0
    3.4148    0.6638   -1.4172 H   0  0  0  0  0  0  0  0  0  0  0  0
  1  2  1  0
  2  3  1  0
  3  4  1  0
  4  5  1  0
  5  6  1  0
  6  7  1  0
  7  8  1  0
  7  9  1  0
  1 10  1  0
  1 11  1  0
  1 12  1  0
  2 13  1  0
  2 14  1  0
  3 15  1  0
  3 16  1  0
  4 17  1  0
  4 18  1  0
  5 19  1  0
  5 20  1  0
  6 21  1  0
  6 22  1  0
  7 23  1  0
A    1
-0.325480
A    2
-0.075141
A    3
-0.127620
A    4
-0.123016
A    5
-0.110928
A    6
-0.266718
A    7
0.455284
A    8
-0.250824
A    9
-0.241378
A   10
0.095385
A   11
0.095758
A   12
0.094179
A   13
0.061030
A   14
0.061109
A   15
0.066359
A   16
0.064456
A   17
0.068065
A   18
0.065600
A   19
0.067610
A   20
0.069199
A   21
0.103658
A   22
0.109011
A   23
0.044401
M  END
