
     RDKit          3D

 17 16  0  0  0  0  0  0  0  0999 V2000
   -0.4930    0.1200    0.2544 C   0  0  0  0  0  0  0  0  0  0  0  0
   -1.0950   -1.1088   -0.3644 C   0  0  0  0  0  0  0  0  0  0  0  0
   -1.3086    1.3587   -0.1457 C   0  0  0  0  0  0  0  0  0  0  0  0
    0.9011    0.3976   -0.2157 C   0  0  0  0  0  0  0  0  0  0  0  0
    1.8795   -0.6981    0.0776 C   0  0  0  0  0  0  0  0  0  0  0  0
    3.1080   -0.2702   -0.4251 F   0  0  0  0  0  0  0  0  0  0  0  0
   -0.5329    0.0093    1.3532 H   0  0  0  0  0  0  0  0  0  0  0  0
   -0.5047   -1.9812   -0.0287 H   0  0  0  0  0  0  0  0  0  0  0  0
   -1.1162   -1.0478   -1.4741 H   0  0  0  0  0  0  0  0  0  0  0  0
   -2.1337   -1.1988    0.0569 H   0  0  0  0  0  0  0  0  0  0  0  0
   -0.8580    1.8324   -1.0683 H   0  0  0  0  0  0  0  0  0  0  0  0
   -2.3341    1.1023   -0.4003 H   0  0  0  0  0  0  0  0  0  0  0  0
   -1.1804    2.0889    0.6566 H   0  0  0  0  0  0  0  0  0  0  0  0
    0.8497    0.5420   -1.3120 H   0  0  0  0  0  0  0  0  0  0  0  0
    1.2217    1.3595    0.2454 H   0  0  0  0  0  0  0  0  0  0  0  0
    2.0036   -0.9232    1.1338 H   0  0  0  0  0  0  0  0  0  0  0  0
    1.5931   -1.5827   -0.5473 H   0  0  0  0  0  0  0  0  0  0  0  0
  1  2  1  0
  1  3  1  0
  1  4  1  0
  4  5  1  0
  5  6  1  0
  1  7  1  0
  2  8  1  0
  2  9  1  0
  2 10  1  0
  3 11  1  0
  3 12  1  0
  3 13  1  0
  4 14  1  0
  4 15  1  0
  5 16  1  0
  5 17  1  0
A    1
0.136462
A    2
-0.368038
A    3
-0.365267
A    4
-0.222190
A    5
0.117441
A    6
-0.216624
A    7
0.037642
A    8
0.098155
A    9
0.105379
A   10
0.104176
A   11
0.104403
A   12
0.100447
A   13
0.100851
A   14
0.085325
A   15
0.084228
A   16
0.048998
A   17
0.048613
M  END
