
     RDKit          3D

  8  7  0  0  0  0  0  0  0  0999 V2000
    0.7733   -0.0094   -0.0877 C   0  0  0  0  0  0  0  0  0  0  0  0
   -0.7130    0.0272    0.1241 C   0  0  0  0  0  0  0  0  0  0  0  0
   -1.2704    1.2571   -0.1413 F   0  0  0  0  0  0  0  0  0  0  0  0
   -1.2887   -0.8956   -0.7375 F   0  0  0  0  0  0  0  0  0  0  0  0
    1.0576   -0.3978   -1.0969 H   0  0  0  0  0  0  0  0  0  0  0  0
    1.1901   -0.6773    0.7205 H   0  0  0  0  0  0  0  0  0  0  0  0
    1.2657    0.9662    0.0610 H   0  0  0  0  0  0  0  0  0  0  0  0
   -1.0146   -0.2702    1.1577 H   0  0  0  0  0  0  0  0  0  0  0  0
  1  2  1  0
  2  3  1  0
  2  4  1  0
  1  5  1  0
  1  6  1  0
  1  7  1  0
  2  8  1  0
A    1
-0.477865
A    2
0.505505
A    3
-0.250749
A    4
-0.250676
A    5
0.145467
A    6
0.143715
A    7
0.143551
A    8
0.041052
M  END
