
     RDKit          3D

  8  7  0  0  0  0  0  0  0  0999 V2000
    0.7328   -0.0210   -0.0964 C   0  0  0  0  0  0  0  0  0  0  0  0
   -0.7559   -0.0216    0.0659 C   0  0  0  0  0  0  0  0  0  0  0  0
    1.3862   -0.8330    0.7919 F   0  0  0  0  0  0  0  0  0  0  0  0
    1.1387    1.0161    0.0694 H   0  0  0  0  0  0  0  0  0  0  0  0
    0.9753   -0.2484   -1.1602 H   0  0  0  0  0  0  0  0  0  0  0  0
   -1.1188    0.9910   -0.2534 H   0  0  0  0  0  0  0  0  0  0  0  0
   -1.0747   -0.1210    1.1259 H   0  0  0  0  0  0  0  0  0  0  0  0
   -1.2836   -0.7621   -0.5430 H   0  0  0  0  0  0  0  0  0  0  0  0
  1  2  1  0
  1  3  1  0
  1  4  1  0
  1  5  1  0
  2  6  1  0
  2  7  1  0
  2  8  1  0
A    1
0.167377
A    2
-0.388849
A    3
-0.220760
A    4
0.044777
A    5
0.044867
A    6
0.120252
A    7
0.116019
A    8
0.116319
M  END
