
     RDKit          3D

 17 16  0  0  0  0  0  0  0  0999 V2000
   -2.4142    0.4815    0.0145 C   0  0  0  0  0  0  0  0  0  0  0  0
   -1.2818   -0.4222   -0.4748 C   0  0  0  0  0  0  0  0  0  0  0  0
   -0.0229    0.1566    0.1172 C   0  0  0  0  0  0  0  0  0  0  0  0
    1.2154   -0.6014   -0.2527 C   0  0  0  0  0  0  0  0  0  0  0  0
    2.3899    0.0942    0.4111 C   0  0  0  0  0  0  0  0  0  0  0  0
    3.5881   -0.5420    0.1231 F   0  0  0  0  0  0  0  0  0  0  0  0
   -3.4000    0.0601   -0.1792 H   0  0  0  0  0  0  0  0  0  0  0  0
   -2.2329    1.4732   -0.4435 H   0  0  0  0  0  0  0  0  0  0  0  0
   -2.3229    0.6330    1.1109 H   0  0  0  0  0  0  0  0  0  0  0  0
   -1.4552   -1.4772   -0.1671 H   0  0  0  0  0  0  0  0  0  0  0  0
   -1.2285   -0.3117   -1.5783 H   0  0  0  0  0  0  0  0  0  0  0  0
   -0.1542    0.1652    1.2179 H   0  0  0  0  0  0  0  0  0  0  0  0
    0.0326    1.2142   -0.2104 H   0  0  0  0  0  0  0  0  0  0  0  0
    1.1279   -1.6218    0.1590 H   0  0  0  0  0  0  0  0  0  0  0  0
    1.4084   -0.6623   -1.3190 H   0  0  0  0  0  0  0  0  0  0  0  0
    2.2542    0.2328    1.4915 H   0  0  0  0  0  0  0  0  0  0  0  0
    2.4959    1.1278   -0.0203 H   0  0  0  0  0  0  0  0  0  0  0  0
  1  2  1  0
  2  3  1  0
  3  4  1  0
  4  5  1  0
  5  6  1  0
  1  7  1  0
  1  8  1  0
  1  9  1  0
  2 10  1  0
  2 11  1  0
  3 12  1  0
  3 13  1  0
  4 14  1  0
  4 15  1  0
  5 16  1  0
  5 17  1  0
A    1
-0.327740
A    2
-0.073196
A    3
-0.120356
A    4
-0.187455
A    5
0.117719
A    6
-0.218784
A    7
0.094686
A    8
0.096727
A    9
0.097566
A   10
0.062963
A   11
0.063452
A   12
0.067376
A   13
0.067102
A   14
0.081467
A   15
0.081668
A   16
0.047575
A   17
0.049229
M  END
