
     RDKit          3D

  8  7  0  0  0  0  0  0  0  0999 V2000
    0.7585   -0.0406    0.0456 C   0  0  0  0  0  0  0  0  0  0  0  0
    1.3242    1.2106    0.1606 F   0  0  0  0  0  0  0  0  0  0  0  0
    1.2209   -0.7062   -1.0504 F   0  0  0  0  0  0  0  0  0  0  0  0
   -0.7638    0.0972   -0.0170 C   0  0  0  0  0  0  0  0  0  0  0  0
   -1.2440   -1.2122   -0.1321 F   0  0  0  0  0  0  0  0  0  0  0  0
    0.9549   -0.6302    0.9844 H   0  0  0  0  0  0  0  0  0  0  0  0
   -1.0917    0.6935   -0.8800 H   0  0  0  0  0  0  0  0  0  0  0  0
   -1.1590    0.5878    0.8887 H   0  0  0  0  0  0  0  0  0  0  0  0
  1  2  1  0
  1  3  1  0
  1  4  1  0
  4  5  1  0
  1  6  1  0
  4  7  1  0
  4  8  1  0
A    1
0.396660
A    2
-0.230453
A    3
-0.233063
A    4
-0.028614
A    5
-0.178240
A    6
0.076921
A    7
0.100401
A    8
0.096389
M  END
