
     RDKit          3D

 11 10  0  0  0  0  0  0  0  0999 V2000
    1.1837    0.4453   -0.1102 C   0  0  0  0  0  0  0  0  0  0  0  0
    0.1224   -0.5809    0.1417 C   0  0  0  0  0  0  0  0  0  0  0  0
   -1.2598    0.0171   -0.0856 C   0  0  0  0  0  0  0  0  0  0  0  0
    0.1426   -1.0646    1.4416 F   0  0  0  0  0  0  0  0  0  0  0  0
    1.9927    0.0677   -0.7511 H   0  0  0  0  0  0  0  0  0  0  0  0
    1.5894    0.7937    0.8711 H   0  0  0  0  0  0  0  0  0  0  0  0
    0.7227    1.3042   -0.6458 H   0  0  0  0  0  0  0  0  0  0  0  0
    0.2913   -1.4413   -0.5460 H   0  0  0  0  0  0  0  0  0  0  0  0
   -1.8948   -0.7997   -0.4555 H   0  0  0  0  0  0  0  0  0  0  0  0
   -1.2440    0.8845   -0.7565 H   0  0  0  0  0  0  0  0  0  0  0  0
   -1.6462    0.3742    0.8962 H   0  0  0  0  0  0  0  0  0  0  0  0
  1  2  1  0
  2  3  1  0
  2  4  1  0
  1  5  1  0
  1  6  1  0
  1  7  1  0
  2  8  1  0
  3  9  1  0
  3 10  1  0
  3 11  1  0
A    1
-0.425346
A    2
0.347722
A    3
-0.425086
A    4
-0.242359
A    5
0.118437
A    6
0.121860
A    7
0.122952
A    8
0.018867
A    9
0.118714
A   10
0.123032
A   11
0.121208
M  END
