
     RDKit          3D

  5  4  0  0  0  0  0  0  0  0999 V2000
   -1.7649    0.6376   -0.9155 F   0  0  0  0  0  0  0  0  0  0  0  0
   -1.3455   -0.5681   -0.3820 C   0  0  0  0  0  0  0  0  0  0  0  0
    0.1576   -0.6815   -0.3523 C   0  0  0  0  0  0  0  0  0  0  0  0
    0.7948    0.4063    0.4792 C   0  0  0  0  0  0  0  0  0  0  0  0
    2.1581    0.2057    0.4356 F   0  0  0  0  0  0  0  0  0  0  0  0
  1  2  1  0
  2  3  1  0
  3  4  1  0
  4  5  1  0
A    1
-0.302
A    2
0.302
A    3
0.000
A    4
0.302
A    5
-0.302
M  END
$$$$
