
     RDKit          3D

  6  5  0  0  0  0  0  0  0  0999 V2000
    1.8959    0.2448    0.5988 C   0  0  0  0  0  0  0  0  0  0  0  0
    1.4527   -0.6150   -0.5391 C   0  0  0  0  0  0  0  0  0  0  0  0
    0.2882   -0.0359   -1.3119 C   0  0  0  0  0  0  0  0  0  0  0  0
   -0.9229    0.1804   -0.5250 C   0  0  0  0  0  0  0  0  0  0  0  0
   -0.8614    1.0135    0.5313 F   0  0  0  0  0  0  0  0  0  0  0  0
   -1.8525   -0.7878   -0.4981 F   0  0  0  0  0  0  0  0  0  0  0  0
  1  2  1  0
  2  3  1  0
  3  4  1  0
  4  5  1  0
  4  6  1  0
A    1
0.000
A    2
0.000
A    3
0.000
A    4
0.564
A    5
-0.282
A    6
-0.282
M  END
$$$$
