
     RDKit          3D

  4  3  0  0  0  0  0  0  0  0999 V2000
    1.3910   -0.0972   -0.1224 C   0  0  0  0  0  0  0  0  0  0  0  0
   -0.0285    0.0073    0.3888 C   0  0  0  0  0  0  0  0  0  0  0  0
   -0.6194    1.1516   -0.1345 F   0  0  0  0  0  0  0  0  0  0  0  0
   -0.7431   -1.0618   -0.1319 F   0  0  0  0  0  0  0  0  0  0  0  0
  1  2  1  0
  2  3  1  0
  2  4  1  0
A    1
0.000
A    2
0.564
A    3
-0.282
A    4
-0.282
M  END
$$$$
