
     RDKit          3D

  8  7  0  0  0  0  0  0  0  0999 V2000
    1.4448    0.8563   -1.1869 C   0  0  0  0  0  0  0  0  0  0  0  0
    1.1809   -0.4913   -0.5707 C   0  0  0  0  0  0  0  0  0  0  0  0
    2.4203   -1.3090   -0.3761 C   0  0  0  0  0  0  0  0  0  0  0  0
    0.3006   -0.4173    0.6413 C   0  0  0  0  0  0  0  0  0  0  0  0
   -1.0183    0.1880    0.2101 C   0  0  0  0  0  0  0  0  0  0  0  0
   -1.5877   -0.6171   -0.7578 F   0  0  0  0  0  0  0  0  0  0  0  0
   -1.8898    0.3098    1.2861 F   0  0  0  0  0  0  0  0  0  0  0  0
   -0.8508    1.4808   -0.2820 F   0  0  0  0  0  0  0  0  0  0  0  0
  1  2  1  0
  2  3  1  0
  2  4  1  0
  4  5  1  0
  5  6  1  0
  5  7  1  0
  5  8  1  0
A    1
0.000
A    2
0.000
A    3
0.000
A    4
0.000
A    5
0.771
A    6
-0.257
A    7
-0.257
A    8
-0.257
M  END
$$$$
