
     RDKit          3D

  5  4  0  0  0  0  0  0  0  0999 V2000
    1.7691   -0.1873    0.5641 C   0  0  0  0  0  0  0  0  0  0  0  0
    0.8248   -0.4853   -0.5733 C   0  0  0  0  0  0  0  0  0  0  0  0
   -0.5519   -0.0097   -0.3425 C   0  0  0  0  0  0  0  0  0  0  0  0
   -0.7235    1.4476   -0.1314 C   0  0  0  0  0  0  0  0  0  0  0  0
   -1.3185   -0.7653    0.4831 F   0  0  0  0  0  0  0  0  0  0  0  0
  1  2  1  0
  2  3  1  0
  3  4  1  0
  3  5  1  0
A    1
0.000
A    2
0.000
A    3
0.328
A    4
0.000
A    5
-0.328
M  END
$$$$
