
     RDKit          3D

  7  6  0  0  0  0  0  0  0  0999 V2000
    2.0291    0.3872   -1.0333 C   0  0  0  0  0  0  0  0  0  0  0  0
    1.3848   -0.9459   -0.7206 C   0  0  0  0  0  0  0  0  0  0  0  0
    0.4386   -0.8556    0.4631 C   0  0  0  0  0  0  0  0  0  0  0  0
   -0.6768    0.1153    0.2281 C   0  0  0  0  0  0  0  0  0  0  0  0
   -1.5518    0.1267    1.4589 C   0  0  0  0  0  0  0  0  0  0  0  0
   -1.3975   -0.2371   -0.9078 F   0  0  0  0  0  0  0  0  0  0  0  0
   -0.2264    1.4094    0.0232 F   0  0  0  0  0  0  0  0  0  0  0  0
  1  2  1  0
  2  3  1  0
  3  4  1  0
  4  5  1  0
  4  6  1  0
  4  7  1  0
A    1
0.000
A    2
0.000
A    3
0.000
A    4
0.578
A    5
0.000
A    6
-0.289
A    7
-0.289
M  END
$$$$
