
     RDKit          3D

  5  4  0  0  0  0  0  0  0  0999 V2000
   -1.6776   -0.8235    0.0456 C   0  0  0  0  0  0  0  0  0  0  0  0
   -0.4685   -0.0370   -0.1296 C   0  0  0  0  0  0  0  0  0  0  0  0
   -0.5451    1.3033   -0.0869 F   0  0  0  0  0  0  0  0  0  0  0  0
    0.8299   -0.6563    0.1951 C   0  0  0  0  0  0  0  0  0  0  0  0
    1.8613    0.2135   -0.0241 F   0  0  0  0  0  0  0  0  0  0  0  0
  1  2  1  0
  2  3  1  0
  2  4  1  0
  4  5  1  0
A    1
0.000
A    2
0.328
A    3
-0.328
A    4
0.302
A    5
-0.302
M  END
$$$$
