
     RDKit          3D

  5  4  0  0  0  0  0  0  0  0999 V2000
   -1.8262    0.6565   -0.9115 C   0  0  0  0  0  0  0  0  0  0  0  0
   -1.3161   -0.6395   -0.3726 C   0  0  0  0  0  0  0  0  0  0  0  0
    0.1876   -0.6898   -0.3639 C   0  0  0  0  0  0  0  0  0  0  0  0
    0.7917    0.4153    0.4952 C   0  0  0  0  0  0  0  0  0  0  0  0
    2.1629    0.2574    0.4179 F   0  0  0  0  0  0  0  0  0  0  0  0
  1  2  1  0
  2  3  1  0
  3  4  1  0
  4  5  1  0
A    1
0.000
A    2
0.000
A    3
0.000
A    4
0.302
A    5
-0.302
M  END
$$$$
