
     RDKit          3D

  7  6  0  0  0  0  0  0  0  0999 V2000
    3.0250   -0.3807    0.5737 C   0  0  0  0  0  0  0  0  0  0  0  0
    1.7070    0.3269    0.3046 C   0  0  0  0  0  0  0  0  0  0  0  0
    0.9628   -0.4780   -0.7494 C   0  0  0  0  0  0  0  0  0  0  0  0
   -0.3539    0.0998   -1.1150 C   0  0  0  0  0  0  0  0  0  0  0  0
   -1.3332    0.2284   -0.0192 C   0  0  0  0  0  0  0  0  0  0  0  0
   -1.7457   -0.9984    0.6767 C   0  0  0  0  0  0  0  0  0  0  0  0
   -2.2621    1.2020   -0.1601 F   0  0  0  0  0  0  0  0  0  0  0  0
  1  2  1  0
  2  3  1  0
  3  4  1  0
  4  5  1  0
  5  6  1  0
  5  7  1  0
A    1
0.000
A    2
0.000
A    3
0.000
A    4
0.000
A    5
0.328
A    6
0.000
A    7
-0.328
M  END
$$$$
