
     RDKit          3D

  7  6  0  0  0  0  0  0  0  0999 V2000
    2.0700    0.8303    0.4076 C   0  0  0  0  0  0  0  0  0  0  0  0
    1.8005   -0.0902   -0.7743 C   0  0  0  0  0  0  0  0  0  0  0  0
    0.8221   -1.1442   -0.2790 C   0  0  0  0  0  0  0  0  0  0  0  0
   -0.4003   -0.4391    0.1637 C   0  0  0  0  0  0  0  0  0  0  0  0
   -1.4001   -1.2081    0.6430 F   0  0  0  0  0  0  0  0  0  0  0  0
   -0.8104    0.7414   -0.6379 C   0  0  0  0  0  0  0  0  0  0  0  0
   -2.0817    1.3098   -0.0115 C   0  0  0  0  0  0  0  0  0  0  0  0
  1  2  1  0
  2  3  1  0
  3  4  1  0
  4  5  1  0
  4  6  1  0
  6  7  1  0
A    1
0.000
A    2
0.000
A    3
0.000
A    4
0.328
A    5
-0.328
A    6
0.000
A    7
0.000
M  END
$$$$
