
     RDKit          3D

  9  8  0  0  0  0  0  0  0  0999 V2000
    3.4890    1.4212   -0.8127 C   0  0  0  0  0  0  0  0  0  0  0  0
    3.5027    0.3247    0.2250 C   0  0  0  0  0  0  0  0  0  0  0  0
    2.3791   -0.6307   -0.0905 C   0  0  0  0  0  0  0  0  0  0  0  0
    1.0269    0.0500   -0.0663 C   0  0  0  0  0  0  0  0  0  0  0  0
    0.0086   -1.0462   -0.4029 C   0  0  0  0  0  0  0  0  0  0  0  0
   -1.3946   -0.4894   -0.4108 C   0  0  0  0  0  0  0  0  0  0  0  0
   -1.7579    0.0923    0.9561 C   0  0  0  0  0  0  0  0  0  0  0  0
   -3.1733    0.6171    0.8328 C   0  0  0  0  0  0  0  0  0  0  0  0
   -4.0806   -0.3389    0.5007 F   0  0  0  0  0  0  0  0  0  0  0  0
  1  2  1  0
  2  3  1  0
  3  4  1  0
  4  5  1  0
  5  6  1  0
  6  7  1  0
  7  8  1  0
  8  9  1  0
A    1
0.000
A    2
0.000
A    3
0.000
A    4
0.000
A    5
0.000
A    6
0.000
A    7
0.000
A    8
0.302
A    9
-0.302
M  END
$$$$
