
     RDKit          3D

  6  5  0  0  0  0  0  0  0  0999 V2000
    2.1332    0.3647   -0.0487 F   0  0  0  0  0  0  0  0  0  0  0  0
    1.3002   -0.2059    0.8906 C   0  0  0  0  0  0  0  0  0  0  0  0
    0.4979   -1.2719    0.1889 C   0  0  0  0  0  0  0  0  0  0  0  0
   -0.3390   -0.7420   -0.9367 C   0  0  0  0  0  0  0  0  0  0  0  0
   -1.3451    0.2869   -0.5090 C   0  0  0  0  0  0  0  0  0  0  0  0
   -2.2472   -0.1758    0.4148 F   0  0  0  0  0  0  0  0  0  0  0  0
  1  2  1  0
  2  3  1  0
  3  4  1  0
  4  5  1  0
  5  6  1  0
A    1
-0.302
A    2
0.302
A    3
0.000
A    4
0.000
A    5
0.302
A    6
-0.302
M  END
$$$$
