
     RDKit          3D

  8  7  0  0  0  0  0  0  0  0999 V2000
    2.8522    1.3590   -0.3773 C   0  0  0  0  0  0  0  0  0  0  0  0
    2.8480   -0.0573    0.1924 C   0  0  0  0  0  0  0  0  0  0  0  0
    1.6466   -0.7824   -0.3521 C   0  0  0  0  0  0  0  0  0  0  0  0
    0.3575   -0.0915    0.0347 C   0  0  0  0  0  0  0  0  0  0  0  0
   -0.8061   -0.8596   -0.5361 C   0  0  0  0  0  0  0  0  0  0  0  0
   -2.1317   -0.2757   -0.2220 C   0  0  0  0  0  0  0  0  0  0  0  0
   -2.4110   -0.1882    1.1194 F   0  0  0  0  0  0  0  0  0  0  0  0
   -2.3556    0.8957   -0.8951 F   0  0  0  0  0  0  0  0  0  0  0  0
  1  2  1  0
  2  3  1  0
  3  4  1  0
  4  5  1  0
  5  6  1  0
  6  7  1  0
  6  8  1  0
A    1
0.000
A    2
0.000
A    3
0.000
A    4
0.000
A    5
0.000
A    6
0.564
A    7
-0.282
A    8
-0.282
M  END
$$$$
