
     RDKit          3D

  4  3  0  0  0  0  0  0  0  0999 V2000
   -1.3591    0.5749    0.1618 F   0  0  0  0  0  0  0  0  0  0  0  0
   -0.7196   -0.5692   -0.2762 C   0  0  0  0  0  0  0  0  0  0  0  0
    0.7019   -0.5621    0.2818 C   0  0  0  0  0  0  0  0  0  0  0  0
    1.3768    0.5565   -0.1673 F   0  0  0  0  0  0  0  0  0  0  0  0
  1  2  1  0
  2  3  1  0
  3  4  1  0
A    1
-0.302
A    2
0.302
A    3
0.302
A    4
-0.302
M  END
$$$$
