
     RDKit          3D

  7  6  0  0  0  0  0  0  0  0999 V2000
    2.1676    0.5704    0.2034 C   0  0  0  0  0  0  0  0  0  0  0  0
    1.3981   -0.5569    0.8629 C   0  0  0  0  0  0  0  0  0  0  0  0
    0.2893   -1.0732    0.0120 C   0  0  0  0  0  0  0  0  0  0  0  0
   -0.7336    0.0024   -0.3196 C   0  0  0  0  0  0  0  0  0  0  0  0
   -1.2775    0.4824    0.8735 F   0  0  0  0  0  0  0  0  0  0  0  0
   -1.6930   -0.5029   -1.1546 F   0  0  0  0  0  0  0  0  0  0  0  0
   -0.1510    1.0777   -0.9661 F   0  0  0  0  0  0  0  0  0  0  0  0
  1  2  1  0
  2  3  1  0
  3  4  1  0
  4  5  1  0
  4  6  1  0
  4  7  1  0
A    1
0.000
A    2
0.000
A    3
0.000
A    4
0.771
A    5
-0.257
A    6
-0.257
A    7
-0.257
M  END
$$$$
