
     RDKit          3D

  7  6  0  0  0  0  0  0  0  0999 V2000
   -0.4483    1.6755   -0.2435 C   0  0  0  0  0  0  0  0  0  0  0  0
   -0.8690    0.2038   -0.1670 C   0  0  0  0  0  0  0  0  0  0  0  0
   -2.2192    0.0761    0.4494 C   0  0  0  0  0  0  0  0  0  0  0  0
   -0.7905   -0.4083   -1.5526 C   0  0  0  0  0  0  0  0  0  0  0  0
    0.2199   -0.4829    0.6649 C   0  0  0  0  0  0  0  0  0  0  0  0
    1.5110   -0.2515   -0.1295 C   0  0  0  0  0  0  0  0  0  0  0  0
    2.5962   -0.8127    0.4898 F   0  0  0  0  0  0  0  0  0  0  0  0
  1  2  1  0
  2  3  1  0
  2  4  1  0
  2  5  1  0
  5  6  1  0
  6  7  1  0
A    1
0.000
A    2
0.000
A    3
0.000
A    4
0.000
A    5
0.000
A    6
0.302
A    7
-0.302
M  END
$$$$
