
     RDKit          3D

  5  4  0  0  0  0  0  0  0  0999 V2000
    1.6751   -0.1925    0.5457 F   0  0  0  0  0  0  0  0  0  0  0  0
    0.8590   -0.4233   -0.5462 C   0  0  0  0  0  0  0  0  0  0  0  0
   -0.5432    0.0309   -0.3536 C   0  0  0  0  0  0  0  0  0  0  0  0
   -0.6925    1.3550   -0.1067 F   0  0  0  0  0  0  0  0  0  0  0  0
   -1.2984   -0.7700    0.4609 F   0  0  0  0  0  0  0  0  0  0  0  0
  1  2  1  0
  2  3  1  0
  3  4  1  0
  3  5  1  0
A    1
-0.302
A    2
0.302
A    3
0.564
A    4
-0.282
A    5
-0.282
M  END
$$$$
