
     RDKit          3D

  5  4  0  0  0  0  0  0  0  0999 V2000
    1.3525   -0.5994   -0.2520 C   0  0  0  0  0  0  0  0  0  0  0  0
    0.0101    0.0252   -0.0125 C   0  0  0  0  0  0  0  0  0  0  0  0
   -1.0817   -1.0146   -0.1010 C   0  0  0  0  0  0  0  0  0  0  0  0
   -0.0209    0.5451    1.2588 F   0  0  0  0  0  0  0  0  0  0  0  0
   -0.2600    1.0437   -0.8933 F   0  0  0  0  0  0  0  0  0  0  0  0
  1  2  1  0
  2  3  1  0
  2  4  1  0
  2  5  1  0
A    1
0.000
A    2
0.578
A    3
0.000
A    4
-0.289
A    5
-0.289
M  END
$$$$
