
     RDKit          3D

  5  4  0  0  0  0  0  0  0  0999 V2000
   -1.6456   -0.9075    0.0441 C   0  0  0  0  0  0  0  0  0  0  0  0
   -0.4677   -0.0761   -0.1295 C   0  0  0  0  0  0  0  0  0  0  0  0
   -0.5993    1.3866   -0.0694 C   0  0  0  0  0  0  0  0  0  0  0  0
    0.8565   -0.6514    0.1838 C   0  0  0  0  0  0  0  0  0  0  0  0
    1.8561    0.2484   -0.0289 F   0  0  0  0  0  0  0  0  0  0  0  0
  1  2  1  0
  2  3  1  0
  2  4  1  0
  4  5  1  0
A    1
0.000
A    2
0.000
A    3
0.000
A    4
0.302
A    5
-0.302
M  END
$$$$
