
     RDKit          3D

  7  6  0  0  0  0  0  0  0  0999 V2000
    1.9204    1.1233    0.5995 C   0  0  0  0  0  0  0  0  0  0  0  0
    1.6533    0.0171   -0.3649 C   0  0  0  0  0  0  0  0  0  0  0  0
    0.3473   -0.6506   -0.1956 C   0  0  0  0  0  0  0  0  0  0  0  0
    0.0098   -1.7385   -1.0948 C   0  0  0  0  0  0  0  0  0  0  0  0
   -0.7207    0.0895    0.4795 C   0  0  0  0  0  0  0  0  0  0  0  0
   -1.9644   -0.7641    0.5498 C   0  0  0  0  0  0  0  0  0  0  0  0
   -1.2457    1.9233   -0.4619 I   0  0  0  0  0  0  0  0  0  0  0  0
  1  2  1  0
  2  3  1  0
  3  4  1  0
  3  5  1  0
  5  6  1  0
  5  7  1  0
A    1
0.000
A    2
0.000
A    3
0.000
A    4
0.000
A    5
0.239
A    6
0.000
A    7
-0.239
M  END
$$$$
