
     RDKit          3D

  4  3  0  0  0  0  0  0  0  0999 V2000
   -0.0416    1.5520   -0.2224 C   0  0  0  0  0  0  0  0  0  0  0  0
    0.0008    0.2197    0.4904 C   0  0  0  0  0  0  0  0  0  0  0  0
    1.7417   -0.8574   -0.1353 I   0  0  0  0  0  0  0  0  0  0  0  0
   -1.7009   -0.9143   -0.1328 I   0  0  0  0  0  0  0  0  0  0  0  0
  1  2  1  0
  2  3  1  0
  2  4  1  0
A    1
0.000
A    2
0.378
A    3
-0.189
A    4
-0.189
M  END
$$$$
