
     RDKit          3D

  9  8  0  0  0  0  0  0  0  0999 V2000
    2.7777    1.8609    0.3382 C   0  0  0  0  0  0  0  0  0  0  0  0
    3.1627    0.5703   -0.3398 C   0  0  0  0  0  0  0  0  0  0  0  0
    2.2726   -0.5588    0.0889 C   0  0  0  0  0  0  0  0  0  0  0  0
    0.8225   -0.2266   -0.2783 C   0  0  0  0  0  0  0  0  0  0  0  0
    0.0102   -1.4199    0.1928 C   0  0  0  0  0  0  0  0  0  0  0  0
   -1.4454   -1.2895   -0.0762 C   0  0  0  0  0  0  0  0  0  0  0  0
   -2.0605   -0.0830    0.6049 C   0  0  0  0  0  0  0  0  0  0  0  0
   -1.4100    1.1946    0.1356 C   0  0  0  0  0  0  0  0  0  0  0  0
   -4.1298   -0.0480    0.0652 I   0  0  0  0  0  0  0  0  0  0  0  0
  1  2  1  0
  2  3  1  0
  3  4  1  0
  4  5  1  0
  5  6  1  0
  6  7  1  0
  7  8  1  0
  7  9  1  0
A    1
0.000
A    2
0.000
A    3
0.000
A    4
0.000
A    5
0.000
A    6
0.000
A    7
0.239
A    8
0.000
A    9
-0.239
M  END
$$$$
