
     RDKit          3D

 10  9  0  0  0  0  0  0  0  0999 V2000
   -3.6233    0.6097   -1.6981 C   0  0  0  0  0  0  0  0  0  0  0  0
   -2.3698    0.2078   -0.9690 C   0  0  0  0  0  0  0  0  0  0  0  0
   -2.3648    0.6670    0.4724 C   0  0  0  0  0  0  0  0  0  0  0  0
   -1.0624    0.2031    1.0853 C   0  0  0  0  0  0  0  0  0  0  0  0
    0.0963    0.8247    0.3143 C   0  0  0  0  0  0  0  0  0  0  0  0
    1.3691    0.3018    1.0019 C   0  0  0  0  0  0  0  0  0  0  0  0
    1.2946   -1.2023    0.8669 C   0  0  0  0  0  0  0  0  0  0  0  0
    1.2811   -1.5311   -0.6014 C   0  0  0  0  0  0  0  0  0  0  0  0
    2.5075   -1.0809   -1.3147 C   0  0  0  0  0  0  0  0  0  0  0  0
    2.8717    1.0002   -1.2415 I   0  0  0  0  0  0  0  0  0  0  0  0
  1  2  1  0
  2  3  1  0
  3  4  1  0
  4  5  1  0
  5  6  1  0
  6  7  1  0
  7  8  1  0
  8  9  1  0
  9 10  1  0
A    1
0.000
A    2
0.000
A    3
0.000
A    4
0.000
A    5
0.000
A    6
0.000
A    7
0.000
A    8
0.000
A    9
0.202
A   10
-0.202
M  END
$$$$
