
     RDKit          3D

  9  8  0  0  0  0  0  0  0  0999 V2000
   -2.0627    2.1986   -1.1515 C   0  0  0  0  0  0  0  0  0  0  0  0
   -2.5932    1.3896    0.0205 C   0  0  0  0  0  0  0  0  0  0  0  0
   -2.0750    0.0049   -0.0551 C   0  0  0  0  0  0  0  0  0  0  0  0
   -0.5440   -0.0604   -0.0106 C   0  0  0  0  0  0  0  0  0  0  0  0
   -0.2329   -1.5423   -0.0991 C   0  0  0  0  0  0  0  0  0  0  0  0
    1.2178   -1.8512   -0.0735 C   0  0  0  0  0  0  0  0  0  0  0  0
    1.9253   -1.3878    1.1737 C   0  0  0  0  0  0  0  0  0  0  0  0
    1.7764    0.0936    1.2786 C   0  0  0  0  0  0  0  0  0  0  0  0
    2.5883    1.1550   -0.3516 I   0  0  0  0  0  0  0  0  0  0  0  0
  1  2  1  0
  2  3  1  0
  3  4  1  0
  4  5  1  0
  5  6  1  0
  6  7  1  0
  7  8  1  0
  8  9  1  0
A    1
0.000
A    2
0.000
A    3
0.000
A    4
0.000
A    5
0.000
A    6
0.000
A    7
0.000
A    8
0.202
A    9
-0.202
M  END
$$$$
