
     RDKit          3D

 11 10  0  0  0  0  0  0  0  0999 V2000
   -3.9458    1.6472    0.9630 C   0  0  0  0  0  0  0  0  0  0  0  0
   -2.7147    0.8630    0.6477 C   0  0  0  0  0  0  0  0  0  0  0  0
   -2.8113    0.3127   -0.7567 C   0  0  0  0  0  0  0  0  0  0  0  0
   -1.6120   -0.4874   -1.1485 C   0  0  0  0  0  0  0  0  0  0  0  0
   -0.3483    0.3591   -1.0897 C   0  0  0  0  0  0  0  0  0  0  0  0
    0.8699   -0.4070   -1.4747 C   0  0  0  0  0  0  0  0  0  0  0  0
    1.0616   -1.5881   -0.5331 C   0  0  0  0  0  0  0  0  0  0  0  0
    1.2250   -1.1756    0.8900 C   0  0  0  0  0  0  0  0  0  0  0  0
    2.3869   -0.2893    1.1615 C   0  0  0  0  0  0  0  0  0  0  0  0
    3.7143   -0.9101    0.8008 C   0  0  0  0  0  0  0  0  0  0  0  0
    2.1744    1.6756    0.4444 I   0  0  0  0  0  0  0  0  0  0  0  0
  1  2  1  0
  2  3  1  0
  3  4  1  0
  4  5  1  0
  5  6  1  0
  6  7  1  0
  7  8  1  0
  8  9  1  0
  9 10  1  0
  9 11  1  0
A    1
0.000
A    2
0.000
A    3
0.000
A    4
0.000
A    5
0.000
A    6
0.000
A    7
0.000
A    8
0.000
A    9
0.239
A   10
0.000
A   11
-0.239
M  END
$$$$
