
     RDKit          3D

  7  6  0  0  0  0  0  0  0  0999 V2000
    2.7378   -1.4525    0.2772 C   0  0  0  0  0  0  0  0  0  0  0  0
    1.7626   -0.3669   -0.0651 C   0  0  0  0  0  0  0  0  0  0  0  0
    0.5742   -0.9413   -0.8127 C   0  0  0  0  0  0  0  0  0  0  0  0
   -0.3956    0.1833   -1.1453 C   0  0  0  0  0  0  0  0  0  0  0  0
   -0.8325    0.7987    0.1685 C   0  0  0  0  0  0  0  0  0  0  0  0
   -1.7700   -0.6746    1.3394 I   0  0  0  0  0  0  0  0  0  0  0  0
   -2.0766    2.4533   -0.2505 I   0  0  0  0  0  0  0  0  0  0  0  0
  1  2  1  0
  2  3  1  0
  3  4  1  0
  4  5  1  0
  5  6  1  0
  5  7  1  0
A    1
0.000
A    2
0.000
A    3
0.000
A    4
0.000
A    5
0.378
A    6
-0.189
A    7
-0.189
M  END
$$$$
