
     RDKit          3D

  7  6  0  0  0  0  0  0  0  0999 V2000
   -1.4618    1.7073    0.4882 C   0  0  0  0  0  0  0  0  0  0  0  0
   -1.3855    0.5320   -0.4100 C   0  0  0  0  0  0  0  0  0  0  0  0
   -3.0094   -0.7470   -0.4106 I   0  0  0  0  0  0  0  0  0  0  0  0
   -0.0511   -0.0513   -0.6217 C   0  0  0  0  0  0  0  0  0  0  0  0
    0.6229   -0.5488    0.6330 C   0  0  0  0  0  0  0  0  0  0  0  0
    1.9629   -1.1246    0.3541 C   0  0  0  0  0  0  0  0  0  0  0  0
    3.3220    0.2324   -0.5215 I   0  0  0  0  0  0  0  0  0  0  0  0
  1  2  1  0
  2  3  1  0
  2  4  1  0
  4  5  1  0
  5  6  1  0
  6  7  1  0
A    1
0.000
A    2
0.239
A    3
-0.239
A    4
0.000
A    5
0.000
A    6
0.202
A    7
-0.202
M  END
$$$$
