
     RDKit          3D

  6  5  0  0  0  0  0  0  0  0999 V2000
   -1.8572   -0.2235   -0.8583 C   0  0  0  0  0  0  0  0  0  0  0  0
   -0.7236   -0.4651    0.1069 C   0  0  0  0  0  0  0  0  0  0  0  0
   -0.9703    0.2062    1.4335 C   0  0  0  0  0  0  0  0  0  0  0  0
    0.6110   -0.0940   -0.4906 C   0  0  0  0  0  0  0  0  0  0  0  0
    0.7133    1.3402   -0.8919 C   0  0  0  0  0  0  0  0  0  0  0  0
    2.2268   -0.7638    0.7004 I   0  0  0  0  0  0  0  0  0  0  0  0
  1  2  1  0
  2  3  1  0
  2  4  1  0
  4  5  1  0
  4  6  1  0
A    1
0.000
A    2
0.000
A    3
0.000
A    4
0.239
A    5
0.000
A    6
-0.239
M  END
$$$$
