
     RDKit          3D

  7  6  0  0  0  0  0  0  0  0999 V2000
    2.0402    0.7071   -0.6595 C   0  0  0  0  0  0  0  0  0  0  0  0
    1.4969    0.1262    0.6294 C   0  0  0  0  0  0  0  0  0  0  0  0
    0.1406   -0.3767    0.4263 C   0  0  0  0  0  0  0  0  0  0  0  0
   -0.0927   -1.4340   -0.5594 C   0  0  0  0  0  0  0  0  0  0  0  0
   -1.5743   -1.7714   -0.5737 C   0  0  0  0  0  0  0  0  0  0  0  0
   -0.9923    0.4356    0.8604 C   0  0  0  0  0  0  0  0  0  0  0  0
   -1.0183    2.3132   -0.1235 I   0  0  0  0  0  0  0  0  0  0  0  0
  1  2  1  0
  2  3  1  0
  3  4  1  0
  4  5  1  0
  3  6  1  0
  6  7  1  0
A    1
0.000
A    2
0.000
A    3
0.000
A    4
0.000
A    5
0.000
A    6
0.202
A    7
-0.202
M  END
$$$$
