
     RDKit          3D

  6  5  0  0  0  0  0  0  0  0999 V2000
    2.1780   -0.0544   -0.3293 C   0  0  0  0  0  0  0  0  0  0  0  0
    0.8760   -0.7673   -0.4011 C   0  0  0  0  0  0  0  0  0  0  0  0
   -0.2969    0.0543    0.0692 C   0  0  0  0  0  0  0  0  0  0  0  0
   -0.1523    0.4916    1.5096 C   0  0  0  0  0  0  0  0  0  0  0  0
   -0.4868    1.3141   -0.7556 C   0  0  0  0  0  0  0  0  0  0  0  0
   -2.1181   -1.0383   -0.0928 I   0  0  0  0  0  0  0  0  0  0  0  0
  1  2  1  0
  2  3  1  0
  3  4  1  0
  3  5  1  0
  3  6  1  0
A    1
0.000
A    2
0.000
A    3
0.245
A    4
0.000
A    5
0.000
A    6
-0.245
M  END
$$$$
