
     RDKit          3D

  4  3  0  0  0  0  0  0  0  0999 V2000
   -0.8016    1.2583   -0.1721 C   0  0  0  0  0  0  0  0  0  0  0  0
   -0.2016    0.0149    0.4436 C   0  0  0  0  0  0  0  0  0  0  0  0
   -0.8607   -1.2137   -0.1679 C   0  0  0  0  0  0  0  0  0  0  0  0
    1.8639   -0.0595   -0.1036 I   0  0  0  0  0  0  0  0  0  0  0  0
  1  2  1  0
  2  3  1  0
  2  4  1  0
A    1
0.000
A    2
0.239
A    3
0.000
A    4
-0.239
M  END
$$$$
