
     RDKit          3D

  6  5  0  0  0  0  0  0  0  0999 V2000
   -2.3117   -0.4821   -0.5303 C   0  0  0  0  0  0  0  0  0  0  0  0
   -0.8124   -0.7900   -0.5301 C   0  0  0  0  0  0  0  0  0  0  0  0
   -0.1637    0.1825    0.3838 C   0  0  0  0  0  0  0  0  0  0  0  0
   -0.3314    2.1841   -0.0286 I   0  0  0  0  0  0  0  0  0  0  0  0
    1.0630   -0.2848    1.0700 C   0  0  0  0  0  0  0  0  0  0  0  0
    2.5561   -0.8097   -0.3648 I   0  0  0  0  0  0  0  0  0  0  0  0
  1  2  1  0
  2  3  1  0
  3  4  1  0
  3  5  1  0
  5  6  1  0
A    1
0.000
A    2
0.000
A    3
0.239
A    4
-0.239
A    5
0.202
A    6
-0.202
M  END
$$$$
