
     RDKit          3D

  6  5  0  0  0  0  0  0  0  0999 V2000
    1.9727    0.2431    0.6217 C   0  0  0  0  0  0  0  0  0  0  0  0
    1.5106   -0.6609   -0.4790 C   0  0  0  0  0  0  0  0  0  0  0  0
    0.4074   -0.0562   -1.3175 C   0  0  0  0  0  0  0  0  0  0  0  0
   -0.8165    0.2788   -0.5522 C   0  0  0  0  0  0  0  0  0  0  0  0
   -0.6931    1.2378    0.5429 C   0  0  0  0  0  0  0  0  0  0  0  0
   -2.3811   -1.0427   -0.5599 I   0  0  0  0  0  0  0  0  0  0  0  0
  1  2  1  0
  2  3  1  0
  3  4  1  0
  4  5  1  0
  4  6  1  0
A    1
0.000
A    2
0.000
A    3
0.000
A    4
0.239
A    5
0.000
A    6
-0.239
M  END
$$$$
