
     RDKit          3D

  5  4  0  0  0  0  0  0  0  0999 V2000
   -1.4621   -0.6301    1.0112 C   0  0  0  0  0  0  0  0  0  0  0  0
   -0.8727   -0.7300   -0.3724 C   0  0  0  0  0  0  0  0  0  0  0  0
    0.2915    0.1684   -0.6026 C   0  0  0  0  0  0  0  0  0  0  0  0
   -0.0085    1.6243   -0.4323 C   0  0  0  0  0  0  0  0  0  0  0  0
    2.0518   -0.4327    0.3961 I   0  0  0  0  0  0  0  0  0  0  0  0
  1  2  1  0
  2  3  1  0
  3  4  1  0
  3  5  1  0
A    1
0.000
A    2
0.000
A    3
0.239
A    4
0.000
A    5
-0.239
M  END
$$$$
