
     RDKit          3D

  6  5  0  0  0  0  0  0  0  0999 V2000
    2.0540   -0.2745    0.6901 C   0  0  0  0  0  0  0  0  0  0  0  0
    1.3740   -0.7446   -0.5483 C   0  0  0  0  0  0  0  0  0  0  0  0
    0.0249   -0.1952   -0.7900 C   0  0  0  0  0  0  0  0  0  0  0  0
   -0.0679    1.9008   -0.9718 I   0  0  0  0  0  0  0  0  0  0  0  0
   -1.0419   -0.6777    0.1395 C   0  0  0  0  0  0  0  0  0  0  0  0
   -2.3430   -0.0088   -0.2635 C   0  0  0  0  0  0  0  0  0  0  0  0
  1  2  1  0
  2  3  1  0
  3  4  1  0
  3  5  1  0
  5  6  1  0
A    1
0.000
A    2
0.000
A    3
0.239
A    4
-0.239
A    5
0.000
A    6
0.000
M  END
$$$$
