
     RDKit          3D

  7  6  0  0  0  0  0  0  0  0999 V2000
    2.2899    0.0568   -0.5097 C   0  0  0  0  0  0  0  0  0  0  0  0
    1.4854   -1.0338    0.1858 C   0  0  0  0  0  0  0  0  0  0  0  0
    0.3285   -0.4920    0.9584 C   0  0  0  0  0  0  0  0  0  0  0  0
   -0.6659    0.2571    0.1524 C   0  0  0  0  0  0  0  0  0  0  0  0
   -1.7678    0.7352    1.0852 C   0  0  0  0  0  0  0  0  0  0  0  0
   -0.0663    1.4451   -0.5393 C   0  0  0  0  0  0  0  0  0  0  0  0
   -1.6038   -0.9685   -1.3327 I   0  0  0  0  0  0  0  0  0  0  0  0
  1  2  1  0
  2  3  1  0
  3  4  1  0
  4  5  1  0
  4  6  1  0
  4  7  1  0
A    1
0.000
A    2
0.000
A    3
0.000
A    4
0.245
A    5
0.000
A    6
0.000
A    7
-0.245
M  END
$$$$
