
     RDKit          3D

  7  6  0  0  0  0  0  0  0  0999 V2000
   -2.4874    0.8589    0.8195 C   0  0  0  0  0  0  0  0  0  0  0  0
   -1.3936    1.3110   -0.1271 C   0  0  0  0  0  0  0  0  0  0  0  0
   -0.3126    0.3252   -0.3060 C   0  0  0  0  0  0  0  0  0  0  0  0
   -0.9294   -1.5359   -1.0834 I   0  0  0  0  0  0  0  0  0  0  0  0
    0.6327    0.1885    0.8488 C   0  0  0  0  0  0  0  0  0  0  0  0
    1.6882   -0.8491    0.5384 C   0  0  0  0  0  0  0  0  0  0  0  0
    2.8021   -0.2987   -1.1788 I   0  0  0  0  0  0  0  0  0  0  0  0
  1  2  1  0
  2  3  1  0
  3  4  1  0
  3  5  1  0
  5  6  1  0
  6  7  1  0
A    1
0.000
A    2
0.000
A    3
0.239
A    4
-0.239
A    5
0.000
A    6
0.202
A    7
-0.202
M  END
$$$$
