
     RDKit          3D

  7  6  0  0  0  0  0  0  0  0999 V2000
   -0.6070    1.5709    0.3241 C   0  0  0  0  0  0  0  0  0  0  0  0
   -0.9159    0.2906   -0.4006 C   0  0  0  0  0  0  0  0  0  0  0  0
   -2.3451   -0.1561   -0.2336 C   0  0  0  0  0  0  0  0  0  0  0  0
    0.0258   -0.8227   -0.0810 C   0  0  0  0  0  0  0  0  0  0  0  0
    0.0596   -1.2075    1.3573 C   0  0  0  0  0  0  0  0  0  0  0  0
    1.3573   -0.7128   -0.7383 C   0  0  0  0  0  0  0  0  0  0  0  0
    2.4252    1.0376   -0.2278 I   0  0  0  0  0  0  0  0  0  0  0  0
  1  2  1  0
  2  3  1  0
  2  4  1  0
  4  5  1  0
  4  6  1  0
  6  7  1  0
A    1
0.000
A    2
0.000
A    3
0.000
A    4
0.000
A    5
0.000
A    6
0.202
A    7
-0.202
M  END
$$$$
