
     RDKit          3D

  5  4  0  0  0  0  0  0  0  0999 V2000
   -1.5708   -0.7517   -0.7146 C   0  0  0  0  0  0  0  0  0  0  0  0
   -0.8595   -0.7023    0.6094 C   0  0  0  0  0  0  0  0  0  0  0  0
    0.3987    0.1054    0.5883 C   0  0  0  0  0  0  0  0  0  0  0  0
    0.0782    2.1343    0.0521 I   0  0  0  0  0  0  0  0  0  0  0  0
    1.9533   -0.7858   -0.5352 I   0  0  0  0  0  0  0  0  0  0  0  0
  1  2  1  0
  2  3  1  0
  3  4  1  0
  3  5  1  0
A    1
0.000
A    2
0.000
A    3
0.378
A    4
-0.189
A    5
-0.189
M  END
$$$$
