
     RDKit          3D

  5  4  0  0  0  0  0  0  0  0999 V2000
   -1.8896   -0.7338   -0.0432 C   0  0  0  0  0  0  0  0  0  0  0  0
   -0.5859   -0.0797   -0.1608 C   0  0  0  0  0  0  0  0  0  0  0  0
   -0.5187    1.3860   -0.0755 C   0  0  0  0  0  0  0  0  0  0  0  0
    0.6094   -0.8372    0.2611 C   0  0  0  0  0  0  0  0  0  0  0  0
    2.3847    0.2647    0.0184 I   0  0  0  0  0  0  0  0  0  0  0  0
  1  2  1  0
  2  3  1  0
  2  4  1  0
  4  5  1  0
A    1
0.000
A    2
0.000
A    3
0.000
A    4
0.202
A    5
-0.202
M  END
$$$$
