
     RDKit          3D

  7  6  0  0  0  0  0  0  0  0999 V2000
   -1.3949    1.5084   -0.7535 C   0  0  0  0  0  0  0  0  0  0  0  0
   -0.9867    0.7036    0.4585 C   0  0  0  0  0  0  0  0  0  0  0  0
   -0.1633   -0.5048    0.0842 C   0  0  0  0  0  0  0  0  0  0  0  0
   -1.0197   -1.3625   -0.8263 C   0  0  0  0  0  0  0  0  0  0  0  0
    0.1030   -1.3103    1.3312 C   0  0  0  0  0  0  0  0  0  0  0  0
    1.0729   -0.1517   -0.6763 C   0  0  0  0  0  0  0  0  0  0  0  0
    2.3888    1.1174    0.3822 I   0  0  0  0  0  0  0  0  0  0  0  0
  1  2  1  0
  2  3  1  0
  3  4  1  0
  3  5  1  0
  3  6  1  0
  6  7  1  0
A    1
0.000
A    2
0.000
A    3
0.000
A    4
0.000
A    5
0.000
A    6
0.202
A    7
-0.202
M  END
$$$$
