
     RDKit          3D

  6  5  0  0  0  0  0  0  0  0999 V2000
   -1.6363    1.0618    0.7275 C   0  0  0  0  0  0  0  0  0  0  0  0
   -0.6453    0.4747   -0.2519 C   0  0  0  0  0  0  0  0  0  0  0  0
   -1.4470   -1.2384   -1.1846 I   0  0  0  0  0  0  0  0  0  0  0  0
    0.7022    0.2940    0.3302 C   0  0  0  0  0  0  0  0  0  0  0  0
    0.8067   -0.5949    1.5039 C   0  0  0  0  0  0  0  0  0  0  0  0
    2.2197    0.0028   -1.1252 I   0  0  0  0  0  0  0  0  0  0  0  0
  1  2  1  0
  2  3  1  0
  2  4  1  0
  4  5  1  0
  4  6  1  0
A    1
0.000
A    2
0.239
A    3
-0.239
A    4
0.239
A    5
0.000
A    6
-0.239
M  END
$$$$
