
     RDKit          3D

  8  7  0  0  0  0  0  0  0  0999 V2000
   -2.1917    2.0560    1.1301 I   0  0  0  0  0  0  0  0  0  0  0  0
   -2.8468    0.4022   -0.0465 C   0  0  0  0  0  0  0  0  0  0  0  0
   -1.7645   -0.1061   -0.9344 C   0  0  0  0  0  0  0  0  0  0  0  0
   -0.5576   -0.5754   -0.1780 C   0  0  0  0  0  0  0  0  0  0  0  0
    0.5370   -1.0885   -1.0586 C   0  0  0  0  0  0  0  0  0  0  0  0
    1.6722   -1.5192   -0.1540 C   0  0  0  0  0  0  0  0  0  0  0  0
    2.2001   -0.3865    0.6836 C   0  0  0  0  0  0  0  0  0  0  0  0
    2.9513    1.2176   -0.4782 I   0  0  0  0  0  0  0  0  0  0  0  0
  1  2  1  0
  2  3  1  0
  3  4  1  0
  4  5  1  0
  5  6  1  0
  6  7  1  0
  7  8  1  0
A    1
-0.202
A    2
0.202
A    3
0.000
A    4
0.000
A    5
0.000
A    6
0.000
A    7
0.202
A    8
-0.202
M  END
$$$$
