
     RDKit          3D

  7  6  0  0  0  0  0  0  0  0999 V2000
   -1.6692    1.5357    0.4657 C   0  0  0  0  0  0  0  0  0  0  0  0
   -1.4841    0.3613   -0.3958 C   0  0  0  0  0  0  0  0  0  0  0  0
   -2.5719   -0.6472   -0.3919 C   0  0  0  0  0  0  0  0  0  0  0  0
   -0.1232   -0.1191   -0.6339 C   0  0  0  0  0  0  0  0  0  0  0  0
    0.6067   -0.5280    0.6211 C   0  0  0  0  0  0  0  0  0  0  0  0
    1.9872   -1.0156    0.3822 C   0  0  0  0  0  0  0  0  0  0  0  0
    3.2545    0.4129   -0.5359 I   0  0  0  0  0  0  0  0  0  0  0  0
  1  2  1  0
  2  3  1  0
  2  4  1  0
  4  5  1  0
  5  6  1  0
  6  7  1  0
A    1
0.000
A    2
0.000
A    3
0.000
A    4
0.000
A    5
0.000
A    6
0.202
A    7
-0.202
M  END
$$$$
