
     RDKit          3D

  7  6  0  0  0  0  0  0  0  0999 V2000
   -1.7840    1.7261    0.7267 C   0  0  0  0  0  0  0  0  0  0  0  0
   -1.8196    0.5266   -0.1615 C   0  0  0  0  0  0  0  0  0  0  0  0
   -0.4666   -0.0882   -0.3868 C   0  0  0  0  0  0  0  0  0  0  0  0
   -0.5203   -1.2819   -1.2738 C   0  0  0  0  0  0  0  0  0  0  0  0
    0.2873   -0.3298    0.8972 C   0  0  0  0  0  0  0  0  0  0  0  0
    1.6245   -0.9508    0.4895 C   0  0  0  0  0  0  0  0  0  0  0  0
    2.6788    0.3980   -0.7798 I   0  0  0  0  0  0  0  0  0  0  0  0
  1  2  1  0
  2  3  1  0
  3  4  1  0
  3  5  1  0
  5  6  1  0
  6  7  1  0
A    1
0.000
A    2
0.000
A    3
0.000
A    4
0.000
A    5
0.000
A    6
0.202
A    7
-0.202
M  END
$$$$
