
     RDKit          3D

  6  5  0  0  0  0  0  0  0  0999 V2000
   -2.1599   -0.9666   -0.3292 C   0  0  0  0  0  0  0  0  0  0  0  0
   -1.1632   -0.0058    0.2180 C   0  0  0  0  0  0  0  0  0  0  0  0
   -1.3963    1.4150   -0.2254 C   0  0  0  0  0  0  0  0  0  0  0  0
    0.2314   -0.4876   -0.0728 C   0  0  0  0  0  0  0  0  0  0  0  0
    1.2944    0.4398    0.4544 C   0  0  0  0  0  0  0  0  0  0  0  0
    3.1935   -0.3947   -0.0450 I   0  0  0  0  0  0  0  0  0  0  0  0
  1  2  1  0
  2  3  1  0
  2  4  1  0
  4  5  1  0
  5  6  1  0
A    1
0.000
A    2
0.000
A    3
0.000
A    4
0.000
A    5
0.202
A    6
-0.202
M  END
$$$$
