
     RDKit          3D

  6  5  0  0  0  0  0  0  0  0999 V2000
   -1.5689   -1.0332    0.6312 C   0  0  0  0  0  0  0  0  0  0  0  0
   -1.1589   -0.3473   -0.6538 C   0  0  0  0  0  0  0  0  0  0  0  0
   -1.8735    1.6512   -0.7549 I   0  0  0  0  0  0  0  0  0  0  0  0
    0.3021   -0.4608   -0.9406 C   0  0  0  0  0  0  0  0  0  0  0  0
    1.1077    0.1661    0.1731 C   0  0  0  0  0  0  0  0  0  0  0  0
    3.1915    0.0241   -0.1990 I   0  0  0  0  0  0  0  0  0  0  0  0
  1  2  1  0
  2  3  1  0
  2  4  1  0
  4  5  1  0
  5  6  1  0
A    1
0.000
A    2
0.239
A    3
-0.239
A    4
0.000
A    5
0.202
A    6
-0.202
M  END
$$$$
