
     RDKit          3D

  7  6  0  0  0  0  0  0  0  0999 V2000
    1.4965    1.2229    0.5302 C   0  0  0  0  0  0  0  0  0  0  0  0
    0.8957    0.1717   -0.3457 C   0  0  0  0  0  0  0  0  0  0  0  0
    1.7211   -1.0618   -0.4972 C   0  0  0  0  0  0  0  0  0  0  0  0
   -0.5454   -0.1190    0.0045 C   0  0  0  0  0  0  0  0  0  0  0  0
   -0.6993   -0.6084    1.4311 C   0  0  0  0  0  0  0  0  0  0  0  0
   -1.0924   -1.1995   -0.8946 C   0  0  0  0  0  0  0  0  0  0  0  0
   -1.7761    1.5940   -0.2282 I   0  0  0  0  0  0  0  0  0  0  0  0
  1  2  1  0
  2  3  1  0
  2  4  1  0
  4  5  1  0
  4  6  1  0
  4  7  1  0
A    1
0.000
A    2
0.000
A    3
0.000
A    4
0.245
A    5
0.000
A    6
0.000
A    7
-0.245
M  END
$$$$
