
     RDKit          3D

  5  4  0  0  0  0  0  0  0  0999 V2000
    1.6986   -0.4300    0.6821 C   0  0  0  0  0  0  0  0  0  0  0  0
    0.8734   -0.4993   -0.5706 C   0  0  0  0  0  0  0  0  0  0  0  0
   -0.4695    0.1292   -0.4585 C   0  0  0  0  0  0  0  0  0  0  0  0
   -0.4640    1.5822   -0.1207 C   0  0  0  0  0  0  0  0  0  0  0  0
   -1.6384   -0.7822    0.4677 Cl  0  0  0  0  0  0  0  0  0  0  0  0
  1  2  1  0
  2  3  1  0
  3  4  1  0
  3  5  1  0
A    1
0.000
A    2
0.000
A    3
0.304
A    4
0.000
A    5
-0.304
M  END
$$$$
