
     RDKit          3D

  4  3  0  0  0  0  0  0  0  0999 V2000
   -1.3826   -0.7449   -0.1854 C   0  0  0  0  0  0  0  0  0  0  0  0
   -0.8154    0.5686    0.3266 C   0  0  0  0  0  0  0  0  0  0  0  0
    0.5667    0.7565   -0.2997 C   0  0  0  0  0  0  0  0  0  0  0  0
    1.6313   -0.5803    0.1585 Cl  0  0  0  0  0  0  0  0  0  0  0  0
  1  2  1  0
  2  3  1  0
  3  4  1  0
A    1
0.000
A    2
0.000
A    3
0.270
A    4
-0.270
M  END
$$$$
