
     RDKit          3D

 10  9  0  0  0  0  0  0  0  0999 V2000
    3.6867    0.7815   -0.7662 C   0  0  0  0  0  0  0  0  0  0  0  0
    3.0196   -0.3662   -0.0014 C   0  0  0  0  0  0  0  0  0  0  0  0
    1.9492    0.2604    0.8963 C   0  0  0  0  0  0  0  0  0  0  0  0
    0.9856    0.9710   -0.0639 C   0  0  0  0  0  0  0  0  0  0  0  0
    0.4440   -0.1307   -0.9768 C   0  0  0  0  0  0  0  0  0  0  0  0
   -0.2548   -1.1274   -0.0462 C   0  0  0  0  0  0  0  0  0  0  0  0
   -1.3538   -0.3142    0.6443 C   0  0  0  0  0  0  0  0  0  0  0  0
   -2.2473    0.1939   -0.4935 C   0  0  0  0  0  0  0  0  0  0  0  0
   -3.3909    1.0228    0.0331 C   0  0  0  0  0  0  0  0  0  0  0  0
   -2.8384   -1.2910   -1.3094 Cl  0  0  0  0  0  0  0  0  0  0  0  0
  1  2  1  0
  2  3  1  0
  3  4  1  0
  4  5  1  0
  5  6  1  0
  6  7  1  0
  7  8  1  0
  8  9  1  0
  8 10  1  0
A    1
0.000
A    2
0.000
A    3
0.000
A    4
0.000
A    5
0.000
A    6
0.000
A    7
0.000
A    8
0.304
A    9
0.000
A   10
-0.304
M  END
$$$$
