
     RDKit          3D

 11 10  0  0  0  0  0  0  0  0999 V2000
    3.9999    0.0574    1.6933 C   0  0  0  0  0  0  0  0  0  0  0  0
    2.7043   -0.1122    0.9054 C   0  0  0  0  0  0  0  0  0  0  0  0
    2.9655    0.3023   -0.5423 C   0  0  0  0  0  0  0  0  0  0  0  0
    1.6854    0.1354   -1.3235 C   0  0  0  0  0  0  0  0  0  0  0  0
    0.6465    1.0333   -0.6759 C   0  0  0  0  0  0  0  0  0  0  0  0
   -0.6647    0.9067   -1.4212 C   0  0  0  0  0  0  0  0  0  0  0  0
   -1.1174   -0.5225   -1.3601 C   0  0  0  0  0  0  0  0  0  0  0  0
   -1.3330   -1.0201    0.0467 C   0  0  0  0  0  0  0  0  0  0  0  0
   -2.3850   -0.1833    0.7190 C   0  0  0  0  0  0  0  0  0  0  0  0
   -2.6615   -0.6103    2.1227 C   0  0  0  0  0  0  0  0  0  0  0  0
   -3.8400    0.0131   -0.2594 Cl  0  0  0  0  0  0  0  0  0  0  0  0
  1  2  1  0
  2  3  1  0
  3  4  1  0
  4  5  1  0
  5  6  1  0
  6  7  1  0
  7  8  1  0
  8  9  1  0
  9 10  1  0
  9 11  1  0
A    1
0.000
A    2
0.000
A    3
0.000
A    4
0.000
A    5
0.000
A    6
0.000
A    7
0.000
A    8
0.000
A    9
0.304
A   10
0.000
A   11
-0.304
M  END
$$$$
