
     RDKit          3D

  5  4  0  0  0  0  0  0  0  0999 V2000
    1.6981   -0.4455   -0.6880 C   0  0  0  0  0  0  0  0  0  0  0  0
    0.8860   -0.5435    0.5576 C   0  0  0  0  0  0  0  0  0  0  0  0
   -0.4629    0.0576    0.4860 C   0  0  0  0  0  0  0  0  0  0  0  0
   -0.4977    1.7737    0.1254 Cl  0  0  0  0  0  0  0  0  0  0  0  0
   -1.6236   -0.8423   -0.4810 Cl  0  0  0  0  0  0  0  0  0  0  0  0
  1  2  1  0
  2  3  1  0
  3  4  1  0
  3  5  1  0
A    1
0.000
A    2
0.000
A    3
0.500
A    4
-0.250
A    5
-0.250
M  END
$$$$
