
     RDKit          3D

  9  8  0  0  0  0  0  0  0  0999 V2000
    2.0194   -1.6709   -0.1600 C   0  0  0  0  0  0  0  0  0  0  0  0
    1.1538   -0.4080   -0.2347 C   0  0  0  0  0  0  0  0  0  0  0  0
    2.0771    0.7402    0.2028 C   0  0  0  0  0  0  0  0  0  0  0  0
    0.0784   -0.4653    0.7752 C   0  0  0  0  0  0  0  0  0  0  0  0
    0.4986   -0.5659    2.1837 C   0  0  0  0  0  0  0  0  0  0  0  0
   -1.1163    0.3771    0.5055 C   0  0  0  0  0  0  0  0  0  0  0  0
   -2.1171    0.2093    1.6212 C   0  0  0  0  0  0  0  0  0  0  0  0
   -0.6558    1.8302    0.4453 C   0  0  0  0  0  0  0  0  0  0  0  0
   -1.9381   -0.0466   -1.0162 Cl  0  0  0  0  0  0  0  0  0  0  0  0
  1  2  1  0
  2  3  1  0
  2  4  1  0
  4  5  1  0
  4  6  1  0
  6  7  1  0
  6  8  1  0
  6  9  1  0
A    1
0.000
A    2
0.000
A    3
0.000
A    4
0.000
A    5
0.000
A    6
0.310
A    7
0.000
A    8
0.000
A    9
-0.310
M  END
$$$$
