
     RDKit          3D

  7  6  0  0  0  0  0  0  0  0999 V2000
   -1.6175    1.5841    0.4628 C   0  0  0  0  0  0  0  0  0  0  0  0
   -1.4354    0.4127   -0.4281 C   0  0  0  0  0  0  0  0  0  0  0  0
   -2.6899   -0.7822   -0.3710 Cl  0  0  0  0  0  0  0  0  0  0  0  0
   -0.0681   -0.0524   -0.6435 C   0  0  0  0  0  0  0  0  0  0  0  0
    0.6685   -0.4862    0.6007 C   0  0  0  0  0  0  0  0  0  0  0  0
    2.0589   -0.9505    0.3175 C   0  0  0  0  0  0  0  0  0  0  0  0
    3.0835    0.2744   -0.4269 Cl  0  0  0  0  0  0  0  0  0  0  0  0
  1  2  1  0
  2  3  1  0
  2  4  1  0
  4  5  1  0
  5  6  1  0
  6  7  1  0
A    1
0.000
A    2
0.304
A    3
-0.304
A    4
0.000
A    5
0.000
A    6
0.270
A    7
-0.270
M  END
$$$$
