
     RDKit          3D

  9  8  0  0  0  0  0  0  0  0999 V2000
    0.9998   -1.1688    1.1296 C   0  0  0  0  0  0  0  0  0  0  0  0
    1.1888   -0.2202   -0.0583 C   0  0  0  0  0  0  0  0  0  0  0  0
    2.3845   -0.7773   -0.8321 C   0  0  0  0  0  0  0  0  0  0  0  0
    1.5236    1.3647    0.6218 Cl  0  0  0  0  0  0  0  0  0  0  0  0
    0.0090   -0.2695   -0.9609 C   0  0  0  0  0  0  0  0  0  0  0  0
   -1.2270    0.1437   -0.1969 C   0  0  0  0  0  0  0  0  0  0  0  0
   -2.4676    0.1095   -1.0810 C   0  0  0  0  0  0  0  0  0  0  0  0
   -1.4461   -0.9226    0.8769 C   0  0  0  0  0  0  0  0  0  0  0  0
   -0.9650    1.7405    0.5010 Cl  0  0  0  0  0  0  0  0  0  0  0  0
  1  2  1  0
  2  3  1  0
  2  4  1  0
  2  5  1  0
  5  6  1  0
  6  7  1  0
  6  8  1  0
  6  9  1  0
A    1
0.000
A    2
0.310
A    3
0.000
A    4
-0.310
A    5
0.000
A    6
0.310
A    7
0.000
A    8
0.000
A    9
-0.310
M  END
$$$$
