
     RDKit          3D

  6  5  0  0  0  0  0  0  0  0999 V2000
   -1.5393   -0.8314   -0.6698 C   0  0  0  0  0  0  0  0  0  0  0  0
   -0.4264   -0.0949    0.0118 C   0  0  0  0  0  0  0  0  0  0  0  0
   -0.7585    1.3908   -0.0289 C   0  0  0  0  0  0  0  0  0  0  0  0
   -0.3699   -0.5414    1.4527 C   0  0  0  0  0  0  0  0  0  0  0  0
    0.8450   -0.3732   -0.7405 C   0  0  0  0  0  0  0  0  0  0  0  0
    2.2492    0.4501   -0.0253 Cl  0  0  0  0  0  0  0  0  0  0  0  0
  1  2  1  0
  2  3  1  0
  2  4  1  0
  2  5  1  0
  5  6  1  0
A    1
0.000
A    2
0.000
A    3
0.000
A    4
0.000
A    5
0.270
A    6
-0.270
M  END
$$$$
