
     RDKit          3D

  7  6  0  0  0  0  0  0  0  0999 V2000
   -0.0784   -2.1027    0.6472 C   0  0  0  0  0  0  0  0  0  0  0  0
   -0.4187   -0.6246    0.5059 C   0  0  0  0  0  0  0  0  0  0  0  0
   -1.2170   -0.3982   -0.7693 C   0  0  0  0  0  0  0  0  0  0  0  0
   -1.5854    1.3320   -0.8336 Cl  0  0  0  0  0  0  0  0  0  0  0  0
    0.8228    0.2085    0.4199 C   0  0  0  0  0  0  0  0  0  0  0  0
    0.4748    1.9243    0.2775 Cl  0  0  0  0  0  0  0  0  0  0  0  0
    2.0019   -0.3393   -0.7361 Cl  0  0  0  0  0  0  0  0  0  0  0  0
  1  2  1  0
  2  3  1  0
  3  4  1  0
  2  5  1  0
  5  6  1  0
  5  7  1  0
A    1
0.000
A    2
0.000
A    3
0.270
A    4
-0.270
A    5
0.500
A    6
-0.250
A    7
-0.250
M  END
$$$$
