
     RDKit          3D

  8  7  0  0  0  0  0  0  0  0999 V2000
    3.3039   -0.9671   -0.5023 C   0  0  0  0  0  0  0  0  0  0  0  0
    2.7111    0.2081    0.2122 C   0  0  0  0  0  0  0  0  0  0  0  0
    1.2963    0.5109   -0.1866 C   0  0  0  0  0  0  0  0  0  0  0  0
    0.3605   -0.6700    0.0970 C   0  0  0  0  0  0  0  0  0  0  0  0
   -1.0080   -0.2305   -0.3468 C   0  0  0  0  0  0  0  0  0  0  0  0
   -2.2463   -1.4575   -0.1045 Cl  0  0  0  0  0  0  0  0  0  0  0  0
   -1.3964    1.1191    0.2034 C   0  0  0  0  0  0  0  0  0  0  0  0
   -3.0211    1.4871   -0.4084 Cl  0  0  0  0  0  0  0  0  0  0  0  0
  1  2  1  0
  2  3  1  0
  3  4  1  0
  4  5  1  0
  5  6  1  0
  5  7  1  0
  7  8  1  0
A    1
0.000
A    2
0.000
A    3
0.000
A    4
0.000
A    5
0.304
A    6
-0.304
A    7
0.270
A    8
-0.270
M  END
$$$$
