
     RDKit          3D

  7  6  0  0  0  0  0  0  0  0999 V2000
    2.6203    1.4064   -0.0296 Cl  0  0  0  0  0  0  0  0  0  0  0  0
    2.4744   -0.3219   -0.3879 C   0  0  0  0  0  0  0  0  0  0  0  0
    1.2035   -0.9202    0.1702 C   0  0  0  0  0  0  0  0  0  0  0  0
   -0.0295   -0.2657   -0.3863 C   0  0  0  0  0  0  0  0  0  0  0  0
   -1.2289   -0.9457    0.2429 C   0  0  0  0  0  0  0  0  0  0  0  0
   -2.5318   -0.3394   -0.2693 C   0  0  0  0  0  0  0  0  0  0  0  0
   -2.5080    1.3866    0.1714 Cl  0  0  0  0  0  0  0  0  0  0  0  0
  1  2  1  0
  2  3  1  0
  3  4  1  0
  4  5  1  0
  5  6  1  0
  6  7  1  0
A    1
-0.270
A    2
0.270
A    3
0.000
A    4
0.000
A    5
0.000
A    6
0.270
A    7
-0.270
M  END
$$$$
