
     RDKit          3D

  8  7  0  0  0  0  0  0  0  0999 V2000
    1.9979    1.5430    0.6419 C   0  0  0  0  0  0  0  0  0  0  0  0
    1.0290    0.6307   -0.1104 C   0  0  0  0  0  0  0  0  0  0  0  0
    1.8533   -0.0118   -1.2240 C   0  0  0  0  0  0  0  0  0  0  0  0
    0.6164   -0.5192    0.8085 C   0  0  0  0  0  0  0  0  0  0  0  0
   -0.3374   -1.4055    0.0481 C   0  0  0  0  0  0  0  0  0  0  0  0
   -1.5781   -0.6747   -0.3962 C   0  0  0  0  0  0  0  0  0  0  0  0
   -2.3264   -0.1275    0.8041 C   0  0  0  0  0  0  0  0  0  0  0  0
   -1.2547    0.5651   -1.6079 Cl  0  0  0  0  0  0  0  0  0  0  0  0
  1  2  1  0
  2  3  1  0
  2  4  1  0
  4  5  1  0
  5  6  1  0
  6  7  1  0
  6  8  1  0
A    1
0.000
A    2
0.000
A    3
0.000
A    4
0.000
A    5
0.000
A    6
0.304
A    7
0.000
A    8
-0.304
M  END
$$$$
