
     RDKit          3D

  8  7  0  0  0  0  0  0  0  0999 V2000
   -1.7227    1.5613   -0.3012 C   0  0  0  0  0  0  0  0  0  0  0  0
   -1.3035    0.2821   -1.0181 C   0  0  0  0  0  0  0  0  0  0  0  0
   -0.3226   -0.4273   -0.1069 C   0  0  0  0  0  0  0  0  0  0  0  0
   -1.0624   -0.7109    1.1817 C   0  0  0  0  0  0  0  0  0  0  0  0
    0.1601   -1.9969   -0.8026 Cl  0  0  0  0  0  0  0  0  0  0  0  0
    0.9345    0.3483    0.0853 C   0  0  0  0  0  0  0  0  0  0  0  0
    1.9512   -0.2500    0.9504 C   0  0  0  0  0  0  0  0  0  0  0  0
    1.3654    1.1935   -1.0245 C   0  0  0  0  0  0  0  0  0  0  0  0
  1  2  1  0
  2  3  1  0
  3  4  1  0
  3  5  1  0
  3  6  1  0
  6  7  1  0
  6  8  1  0
A    1
0.000
A    2
0.000
A    3
0.310
A    4
0.000
A    5
-0.310
A    6
0.000
A    7
0.000
A    8
0.000
M  END
$$$$
