
     RDKit          3D

  9  8  0  0  0  0  0  0  0  0999 V2000
    3.9122   -0.2208    0.1943 C   0  0  0  0  0  0  0  0  0  0  0  0
    2.8536    0.7890    0.5706 C   0  0  0  0  0  0  0  0  0  0  0  0
    1.4730    0.1900    0.5953 C   0  0  0  0  0  0  0  0  0  0  0  0
    1.0828   -0.3673   -0.7464 C   0  0  0  0  0  0  0  0  0  0  0  0
   -0.2851   -0.9526   -0.6942 C   0  0  0  0  0  0  0  0  0  0  0  0
   -1.3550    0.0235   -0.3139 C   0  0  0  0  0  0  0  0  0  0  0  0
   -1.0678    0.7126    1.2736 Cl  0  0  0  0  0  0  0  0  0  0  0  0
   -2.6892   -0.6841   -0.3016 C   0  0  0  0  0  0  0  0  0  0  0  0
   -3.9246    0.5098    0.1538 Cl  0  0  0  0  0  0  0  0  0  0  0  0
  1  2  1  0
  2  3  1  0
  3  4  1  0
  4  5  1  0
  5  6  1  0
  6  7  1  0
  6  8  1  0
  8  9  1  0
A    1
0.000
A    2
0.000
A    3
0.000
A    4
0.000
A    5
0.000
A    6
0.304
A    7
-0.304
A    8
0.270
A    9
-0.270
M  END
$$$$
