
     RDKit          3D

  9  8  0  0  0  0  0  0  0  0999 V2000
   -3.5594    1.3389   -0.8882 C   0  0  0  0  0  0  0  0  0  0  0  0
   -3.5525    0.2581    0.1630 C   0  0  0  0  0  0  0  0  0  0  0  0
   -2.3864   -0.6488   -0.1120 C   0  0  0  0  0  0  0  0  0  0  0  0
   -1.0581    0.0802   -0.0678 C   0  0  0  0  0  0  0  0  0  0  0  0
   -0.0089   -0.9956   -0.3680 C   0  0  0  0  0  0  0  0  0  0  0  0
    1.3814   -0.4246   -0.3607 C   0  0  0  0  0  0  0  0  0  0  0  0
    1.7311    0.1862    0.9931 C   0  0  0  0  0  0  0  0  0  0  0  0
    3.1287    0.7196    0.8824 C   0  0  0  0  0  0  0  0  0  0  0  0
    4.3242   -0.5140    0.4896 Cl  0  0  0  0  0  0  0  0  0  0  0  0
  1  2  1  0
  2  3  1  0
  3  4  1  0
  4  5  1  0
  5  6  1  0
  6  7  1  0
  7  8  1  0
  8  9  1  0
A    1
0.000
A    2
0.000
A    3
0.000
A    4
0.000
A    5
0.000
A    6
0.000
A    7
0.000
A    8
0.270
A    9
-0.270
M  END
$$$$
