
     RDKit          3D

  7  6  0  0  0  0  0  0  0  0999 V2000
    2.0043    0.9836    0.6065 C   0  0  0  0  0  0  0  0  0  0  0  0
    1.6396   -0.0838   -0.3827 C   0  0  0  0  0  0  0  0  0  0  0  0
    0.2863   -0.6448   -0.1909 C   0  0  0  0  0  0  0  0  0  0  0  0
   -0.1525   -1.6892   -1.1086 C   0  0  0  0  0  0  0  0  0  0  0  0
   -0.7234    0.2187    0.4326 C   0  0  0  0  0  0  0  0  0  0  0  0
   -2.0309   -0.5338    0.5390 C   0  0  0  0  0  0  0  0  0  0  0  0
   -1.0234    1.7493   -0.3845 Cl  0  0  0  0  0  0  0  0  0  0  0  0
  1  2  1  0
  2  3  1  0
  3  4  1  0
  3  5  1  0
  5  6  1  0
  5  7  1  0
A    1
0.000
A    2
0.000
A    3
0.000
A    4
0.000
A    5
0.304
A    6
0.000
A    7
-0.304
M  END
$$$$
