
     RDKit          3D

  9  8  0  0  0  0  0  0  0  0999 V2000
   -0.7315   -1.2184    1.6840 C   0  0  0  0  0  0  0  0  0  0  0  0
   -1.1956   -1.1455    0.2918 C   0  0  0  0  0  0  0  0  0  0  0  0
   -0.8147   -0.0151   -0.5557 C   0  0  0  0  0  0  0  0  0  0  0  0
   -1.3060    1.3039    0.0839 C   0  0  0  0  0  0  0  0  0  0  0  0
   -1.7226   -0.0849   -1.8345 C   0  0  0  0  0  0  0  0  0  0  0  0
    0.5322    0.1658   -1.0611 C   0  0  0  0  0  0  0  0  0  0  0  0
    1.7016    0.3144   -0.2181 C   0  0  0  0  0  0  0  0  0  0  0  0
    1.9974   -1.0870    0.8130 Cl  0  0  0  0  0  0  0  0  0  0  0  0
    1.5393    1.7668    0.7967 Cl  0  0  0  0  0  0  0  0  0  0  0  0
  1  2  1  0
  2  3  1  0
  3  4  1  0
  3  5  1  0
  3  6  1  0
  6  7  1  0
  7  8  1  0
  7  9  1  0
A    1
0.000
A    2
0.000
A    3
0.000
A    4
0.000
A    5
0.000
A    6
0.000
A    7
0.500
A    8
-0.250
A    9
-0.250
M  END
$$$$
