
     RDKit          3D

  7  6  0  0  0  0  0  0  0  0999 V2000
   -1.6537    1.5332    0.4061 C   0  0  0  0  0  0  0  0  0  0  0  0
   -1.4455    0.3642   -0.4889 C   0  0  0  0  0  0  0  0  0  0  0  0
   -2.4427   -0.7487   -0.2853 C   0  0  0  0  0  0  0  0  0  0  0  0
   -0.0454   -0.0900   -0.6408 C   0  0  0  0  0  0  0  0  0  0  0  0
    0.6129   -0.5164    0.6454 C   0  0  0  0  0  0  0  0  0  0  0  0
    2.0430   -0.9509    0.3021 C   0  0  0  0  0  0  0  0  0  0  0  0
    2.9315    0.4086   -0.4272 Cl  0  0  0  0  0  0  0  0  0  0  0  0
  1  2  1  0
  2  3  1  0
  2  4  1  0
  4  5  1  0
  5  6  1  0
  6  7  1  0
A    1
0.000
A    2
0.000
A    3
0.000
A    4
0.000
A    5
0.000
A    6
0.270
A    7
-0.270
M  END
$$$$
