
     RDKit          3D

  8  7  0  0  0  0  0  0  0  0999 V2000
    3.3279   -0.2012   -0.6100 C   0  0  0  0  0  0  0  0  0  0  0  0
    2.3242    0.9067   -0.4038 C   0  0  0  0  0  0  0  0  0  0  0  0
    0.8909    0.4094   -0.5791 C   0  0  0  0  0  0  0  0  0  0  0  0
    0.6048   -0.6718    0.4162 C   0  0  0  0  0  0  0  0  0  0  0  0
   -0.8115   -1.1529    0.2321 C   0  0  0  0  0  0  0  0  0  0  0  0
   -1.7666    0.0082    0.4480 C   0  0  0  0  0  0  0  0  0  0  0  0
   -3.1661   -0.5401    0.2494 C   0  0  0  0  0  0  0  0  0  0  0  0
   -1.4035    1.2418   -0.7887 Cl  0  0  0  0  0  0  0  0  0  0  0  0
  1  2  1  0
  2  3  1  0
  3  4  1  0
  4  5  1  0
  5  6  1  0
  6  7  1  0
  6  8  1  0
A    1
0.000
A    2
0.000
A    3
0.000
A    4
0.000
A    5
0.000
A    6
0.304
A    7
0.000
A    8
-0.304
M  END
$$$$
