
     RDKit          3D

  7  6  0  0  0  0  0  0  0  0999 V2000
    2.5858    0.5647    0.4761 C   0  0  0  0  0  0  0  0  0  0  0  0
    1.6950    0.3936   -0.7563 C   0  0  0  0  0  0  0  0  0  0  0  0
    0.6409   -0.6291   -0.5756 C   0  0  0  0  0  0  0  0  0  0  0  0
   -0.3202   -0.3827    0.5302 C   0  0  0  0  0  0  0  0  0  0  0  0
   -1.4872   -1.7226    0.5644 Cl  0  0  0  0  0  0  0  0  0  0  0  0
   -1.0904    0.9064    0.3982 C   0  0  0  0  0  0  0  0  0  0  0  0
   -2.0239    0.8698   -1.1256 Cl  0  0  0  0  0  0  0  0  0  0  0  0
  1  2  1  0
  2  3  1  0
  3  4  1  0
  4  5  1  0
  4  6  1  0
  6  7  1  0
A    1
0.000
A    2
0.000
A    3
0.000
A    4
0.304
A    5
-0.304
A    6
0.270
A    7
-0.270
M  END
$$$$
