
     RDKit          3D

  7  6  0  0  0  0  0  0  0  0999 V2000
    1.6315    1.0237    0.5348 C   0  0  0  0  0  0  0  0  0  0  0  0
    0.8902    0.0757   -0.3464 C   0  0  0  0  0  0  0  0  0  0  0  0
    1.5215   -1.2569   -0.5215 C   0  0  0  0  0  0  0  0  0  0  0  0
   -0.5766    0.0094    0.0023 C   0  0  0  0  0  0  0  0  0  0  0  0
   -0.8009   -0.4512    1.4317 C   0  0  0  0  0  0  0  0  0  0  0  0
   -1.2906   -0.9810   -0.8906 C   0  0  0  0  0  0  0  0  0  0  0  0
   -1.3751    1.5803   -0.2103 Cl  0  0  0  0  0  0  0  0  0  0  0  0
  1  2  1  0
  2  3  1  0
  2  4  1  0
  4  5  1  0
  4  6  1  0
  4  7  1  0
A    1
0.000
A    2
0.000
A    3
0.000
A    4
0.310
A    5
0.000
A    6
0.000
A    7
-0.310
M  END
$$$$
