
     RDKit          3D

  6  5  0  0  0  0  0  0  0  0999 V2000
    2.1071    0.2675   -0.3078 C   0  0  0  0  0  0  0  0  0  0  0  0
    0.9048   -0.5566   -0.6017 C   0  0  0  0  0  0  0  0  0  0  0  0
   -0.3484   -0.0374    0.0674 C   0  0  0  0  0  0  0  0  0  0  0  0
   -0.2232   -0.0033    1.5708 C   0  0  0  0  0  0  0  0  0  0  0  0
   -0.6866    1.3745   -0.3800 C   0  0  0  0  0  0  0  0  0  0  0  0
   -1.7537   -1.0447   -0.3486 Cl  0  0  0  0  0  0  0  0  0  0  0  0
  1  2  1  0
  2  3  1  0
  3  4  1  0
  3  5  1  0
  3  6  1  0
A    1
0.000
A    2
0.000
A    3
0.310
A    4
0.000
A    5
0.000
A    6
-0.310
M  END
$$$$
