
     RDKit          3D

 10  9  0  0  0  0  0  0  0  0999 V2000
    2.9387   -0.9884   -1.1068 Cl  0  0  0  0  0  0  0  0  0  0  0  0
    3.2590    0.3765    0.0066 C   0  0  0  0  0  0  0  0  0  0  0  0
    2.0318    1.2657    0.1444 C   0  0  0  0  0  0  0  0  0  0  0  0
    0.8803    0.4550    0.6905 C   0  0  0  0  0  0  0  0  0  0  0  0
    0.5237   -0.7013   -0.2106 C   0  0  0  0  0  0  0  0  0  0  0  0
   -0.6313   -1.4335    0.4327 C   0  0  0  0  0  0  0  0  0  0  0  0
   -1.8439   -0.5864    0.6204 C   0  0  0  0  0  0  0  0  0  0  0  0
   -2.3336   -0.0774   -0.6928 C   0  0  0  0  0  0  0  0  0  0  0  0
   -3.7703    0.9203   -0.4211 Cl  0  0  0  0  0  0  0  0  0  0  0  0
   -1.0544    0.7696   -1.5471 Cl  0  0  0  0  0  0  0  0  0  0  0  0
  1  2  1  0
  2  3  1  0
  3  4  1  0
  4  5  1  0
  5  6  1  0
  6  7  1  0
  7  8  1  0
  8  9  1  0
  8 10  1  0
A    1
-0.270
A    2
0.270
A    3
0.000
A    4
0.000
A    5
0.000
A    6
0.000
A    7
0.000
A    8
0.500
A    9
-0.250
A   10
-0.250
M  END
$$$$
