
     RDKit          3D

  6  5  0  0  0  0  0  0  0  0999 V2000
   -1.7461   -0.8552    0.4237 C   0  0  0  0  0  0  0  0  0  0  0  0
   -1.0756    0.0473   -0.5210 C   0  0  0  0  0  0  0  0  0  0  0  0
   -1.7245    1.3166   -0.8468 C   0  0  0  0  0  0  0  0  0  0  0  0
    0.3297   -0.1423   -0.8121 C   0  0  0  0  0  0  0  0  0  0  0  0
    1.2859   -0.0469    0.3275 C   0  0  0  0  0  0  0  0  0  0  0  0
    2.9306   -0.3195   -0.3154 Cl  0  0  0  0  0  0  0  0  0  0  0  0
  1  2  1  0
  2  3  1  0
  2  4  1  0
  4  5  1  0
  5  6  1  0
A    1
0.000
A    2
0.000
A    3
0.000
A    4
0.000
A    5
0.270
A    6
-0.270
M  END
$$$$
