
     RDKit          3D

 10  9  0  0  0  0  0  0  0  0999 V2000
    3.4635   -0.8702   -0.0018 C   0  0  0  0  0  0  0  0  0  0  0  0
    2.9627    0.2207   -0.9200 C   0  0  0  0  0  0  0  0  0  0  0  0
    2.4068    1.3902   -0.1359 C   0  0  0  0  0  0  0  0  0  0  0  0
    1.2559    0.8397    0.7008 C   0  0  0  0  0  0  0  0  0  0  0  0
    0.1802    0.2410   -0.1820 C   0  0  0  0  0  0  0  0  0  0  0  0
   -0.9073   -0.2724    0.7442 C   0  0  0  0  0  0  0  0  0  0  0  0
   -2.0371   -0.8943   -0.0464 C   0  0  0  0  0  0  0  0  0  0  0  0
   -1.3595   -2.2424   -0.9814 Cl  0  0  0  0  0  0  0  0  0  0  0  0
   -2.6462    0.0770   -1.0261 C   0  0  0  0  0  0  0  0  0  0  0  0
   -3.3189    1.5108   -0.2351 Cl  0  0  0  0  0  0  0  0  0  0  0  0
  1  2  1  0
  2  3  1  0
  3  4  1  0
  4  5  1  0
  5  6  1  0
  6  7  1  0
  7  8  1  0
  7  9  1  0
  9 10  1  0
A    1
0.000
A    2
0.000
A    3
0.000
A    4
0.000
A    5
0.000
A    6
0.000
A    7
0.304
A    8
-0.304
A    9
0.270
A   10
-0.270
M  END
$$$$
