
     RDKit          3D

  8  7  0  0  0  0  0  0  0  0999 V2000
   -3.4789    0.2589    0.0685 C   0  0  0  0  0  0  0  0  0  0  0  0
   -2.3045    1.1113   -0.3478 C   0  0  0  0  0  0  0  0  0  0  0  0
   -1.1487    0.2325   -0.7933 C   0  0  0  0  0  0  0  0  0  0  0  0
   -0.7254   -0.6707    0.3574 C   0  0  0  0  0  0  0  0  0  0  0  0
    0.4177   -1.5125   -0.1454 C   0  0  0  0  0  0  0  0  0  0  0  0
    1.5940   -0.6754   -0.5859 C   0  0  0  0  0  0  0  0  0  0  0  0
    2.1377    0.1696    0.5474 C   0  0  0  0  0  0  0  0  0  0  0  0
    3.5081    1.0863   -0.1368 Cl  0  0  0  0  0  0  0  0  0  0  0  0
  1  2  1  0
  2  3  1  0
  3  4  1  0
  4  5  1  0
  5  6  1  0
  6  7  1  0
  7  8  1  0
A    1
0.000
A    2
0.000
A    3
0.000
A    4
0.000
A    5
0.000
A    6
0.000
A    7
0.270
A    8
-0.270
M  END
$$$$
