
     RDKit          3D

  5  4  0  0  0  0  0  0  0  0999 V2000
   -1.7867   -0.7996   -0.0298 C   0  0  0  0  0  0  0  0  0  0  0  0
   -0.5273   -0.0763   -0.1530 C   0  0  0  0  0  0  0  0  0  0  0  0
   -0.5350    1.3919   -0.0815 C   0  0  0  0  0  0  0  0  0  0  0  0
    0.7180   -0.7666    0.2388 C   0  0  0  0  0  0  0  0  0  0  0  0
    2.1310    0.2506    0.0255 Cl  0  0  0  0  0  0  0  0  0  0  0  0
  1  2  1  0
  2  3  1  0
  2  4  1  0
  4  5  1  0
A    1
0.000
A    2
0.000
A    3
0.000
A    4
0.270
A    5
-0.270
M  END
$$$$
