
     RDKit          3D

 10  9  0  0  0  0  0  0  0  0999 V2000
    3.4259    0.9927    0.0254 C   0  0  0  0  0  0  0  0  0  0  0  0
    2.9892   -0.0323   -0.9773 C   0  0  0  0  0  0  0  0  0  0  0  0
    2.4753   -1.2586   -0.2505 C   0  0  0  0  0  0  0  0  0  0  0  0
    1.3164   -0.8295    0.5992 C   0  0  0  0  0  0  0  0  0  0  0  0
    0.1890   -0.2314   -0.2343 C   0  0  0  0  0  0  0  0  0  0  0  0
   -0.9085    0.1561    0.7439 C   0  0  0  0  0  0  0  0  0  0  0  0
   -2.0939    0.7687    0.0182 C   0  0  0  0  0  0  0  0  0  0  0  0
   -1.6423    2.2227   -0.8701 Cl  0  0  0  0  0  0  0  0  0  0  0  0
   -2.6519   -0.2782   -0.9455 C   0  0  0  0  0  0  0  0  0  0  0  0
   -3.0992   -1.5103   -0.1928 C   0  0  0  0  0  0  0  0  0  0  0  0
  1  2  1  0
  2  3  1  0
  3  4  1  0
  4  5  1  0
  5  6  1  0
  6  7  1  0
  7  8  1  0
  7  9  1  0
  9 10  1  0
A    1
0.000
A    2
0.000
A    3
0.000
A    4
0.000
A    5
0.000
A    6
0.000
A    7
0.304
A    8
-0.304
A    9
0.000
A   10
0.000
M  END
$$$$
