
     RDKit          3D

  8  7  0  0  0  0  0  0  0  0999 V2000
    2.5172   -1.6828    0.1771 C   0  0  0  0  0  0  0  0  0  0  0  0
    2.4201   -0.5047   -0.7790 C   0  0  0  0  0  0  0  0  0  0  0  0
    0.9463   -0.2021   -0.9511 C   0  0  0  0  0  0  0  0  0  0  0  0
    0.3052    0.1511    0.3788 C   0  0  0  0  0  0  0  0  0  0  0  0
   -1.1676    0.4363    0.0972 C   0  0  0  0  0  0  0  0  0  0  0  0
   -1.7529   -0.8233   -0.4949 C   0  0  0  0  0  0  0  0  0  0  0  0
   -1.9610    0.8748    1.6340 Cl  0  0  0  0  0  0  0  0  0  0  0  0
   -1.3073    1.7507   -1.0982 Cl  0  0  0  0  0  0  0  0  0  0  0  0
  1  2  1  0
  2  3  1  0
  3  4  1  0
  4  5  1  0
  5  6  1  0
  5  7  1  0
  5  8  1  0
A    1
0.000
A    2
0.000
A    3
0.000
A    4
0.000
A    5
0.520
A    6
0.000
A    7
-0.260
A    8
-0.260
M  END
$$$$
