
     RDKit          3D

  7  6  0  0  0  0  0  0  0  0999 V2000
   -0.6895    1.5776    0.3745 C   0  0  0  0  0  0  0  0  0  0  0  0
   -0.8620    0.3054   -0.4138 C   0  0  0  0  0  0  0  0  0  0  0  0
   -2.5118   -0.3349   -0.2571 Cl  0  0  0  0  0  0  0  0  0  0  0  0
    0.1442   -0.7441   -0.0803 C   0  0  0  0  0  0  0  0  0  0  0  0
    0.1478   -1.1933    1.3330 C   0  0  0  0  0  0  0  0  0  0  0  0
    1.4816   -0.5494   -0.6963 C   0  0  0  0  0  0  0  0  0  0  0  0
    2.2896    0.9386   -0.2600 Cl  0  0  0  0  0  0  0  0  0  0  0  0
  1  2  1  0
  2  3  1  0
  2  4  1  0
  4  5  1  0
  4  6  1  0
  6  7  1  0
A    1
0.000
A    2
0.304
A    3
-0.304
A    4
0.000
A    5
0.000
A    6
0.270
A    7
-0.270
M  END
$$$$
