
     RDKit          3D

  7  6  0  0  0  0  0  0  0  0999 V2000
    1.9530    1.2282    0.0626 Cl  0  0  0  0  0  0  0  0  0  0  0  0
    1.9640   -0.4094   -0.5945 C   0  0  0  0  0  0  0  0  0  0  0  0
    0.8852   -1.2191    0.0410 C   0  0  0  0  0  0  0  0  0  0  0  0
   -0.4512   -0.5991   -0.2254 C   0  0  0  0  0  0  0  0  0  0  0  0
   -1.8010   -1.4618    0.4721 Cl  0  0  0  0  0  0  0  0  0  0  0  0
   -0.4725    0.8837    0.0424 C   0  0  0  0  0  0  0  0  0  0  0  0
   -2.0774    1.5776   -0.2868 Cl  0  0  0  0  0  0  0  0  0  0  0  0
  1  2  1  0
  2  3  1  0
  3  4  1  0
  4  5  1  0
  4  6  1  0
  6  7  1  0
A    1
-0.270
A    2
0.270
A    3
0.000
A    4
0.304
A    5
-0.304
A    6
0.270
A    7
-0.270
M  END
$$$$
