
     RDKit          3D

 10  9  0  0  0  0  0  0  0  0999 V2000
   -3.4662    0.3907   -2.0262 C   0  0  0  0  0  0  0  0  0  0  0  0
   -2.2538    0.1063   -1.1591 C   0  0  0  0  0  0  0  0  0  0  0  0
   -2.5100    0.6267    0.2450 C   0  0  0  0  0  0  0  0  0  0  0  0
   -1.2767    0.3224    1.0758 C   0  0  0  0  0  0  0  0  0  0  0  0
   -0.1060    1.0364    0.4227 C   0  0  0  0  0  0  0  0  0  0  0  0
    1.1167    0.7040    1.2904 C   0  0  0  0  0  0  0  0  0  0  0  0
    1.2570   -0.7961    1.2604 C   0  0  0  0  0  0  0  0  0  0  0  0
    1.4582   -1.1644   -0.2159 C   0  0  0  0  0  0  0  0  0  0  0  0
    2.7336   -0.4285   -0.6366 C   0  0  0  0  0  0  0  0  0  0  0  0
    3.0474   -0.7974   -2.3403 Cl  0  0  0  0  0  0  0  0  0  0  0  0
  1  2  1  0
  2  3  1  0
  3  4  1  0
  4  5  1  0
  5  6  1  0
  6  7  1  0
  7  8  1  0
  8  9  1  0
  9 10  1  0
A    1
0.000
A    2
0.000
A    3
0.000
A    4
0.000
A    5
0.000
A    6
0.000
A    7
0.000
A    8
0.000
A    9
0.270
A   10
-0.270
M  END
$$$$
