
     RDKit          3D

  9  8  0  0  0  0  0  0  0  0999 V2000
    1.7787    1.3395    0.8360 C   0  0  0  0  0  0  0  0  0  0  0  0
    1.5743    0.4578   -0.3645 C   0  0  0  0  0  0  0  0  0  0  0  0
    0.4198   -0.5035   -0.1989 C   0  0  0  0  0  0  0  0  0  0  0  0
    0.7589   -1.3585    1.0104 C   0  0  0  0  0  0  0  0  0  0  0  0
    0.3894   -1.5530   -1.6077 Cl  0  0  0  0  0  0  0  0  0  0  0  0
   -0.8867    0.2268    0.0224 C   0  0  0  0  0  0  0  0  0  0  0  0
   -2.0403   -0.7385    0.1877 C   0  0  0  0  0  0  0  0  0  0  0  0
   -1.1939    1.0926   -1.1788 C   0  0  0  0  0  0  0  0  0  0  0  0
   -0.8001    1.0368    1.2933 C   0  0  0  0  0  0  0  0  0  0  0  0
  1  2  1  0
  2  3  1  0
  3  4  1  0
  3  5  1  0
  3  6  1  0
  6  7  1  0
  6  8  1  0
  6  9  1  0
A    1
0.000
A    2
0.000
A    3
0.310
A    4
0.000
A    5
-0.310
A    6
0.000
A    7
0.000
A    8
0.000
A    9
0.000
M  END
$$$$
