
     RDKit          3D

  6  5  0  0  0  0  0  0  0  0999 V2000
   -2.3053   -0.4881   -0.4632 C   0  0  0  0  0  0  0  0  0  0  0  0
   -0.8042   -0.7896   -0.4849 C   0  0  0  0  0  0  0  0  0  0  0  0
   -0.1166    0.2296    0.3273 C   0  0  0  0  0  0  0  0  0  0  0  0
   -0.2711    1.8814   -0.1468 Cl  0  0  0  0  0  0  0  0  0  0  0  0
    1.1498   -0.1681    0.9801 C   0  0  0  0  0  0  0  0  0  0  0  0
    2.3474   -0.6652   -0.2124 Cl  0  0  0  0  0  0  0  0  0  0  0  0
  1  2  1  0
  2  3  1  0
  3  4  1  0
  3  5  1  0
  5  6  1  0
A    1
0.000
A    2
0.000
A    3
0.304
A    4
-0.304
A    5
0.270
A    6
-0.270
M  END
$$$$
