
     RDKit          3D

  7  6  0  0  0  0  0  0  0  0999 V2000
   -0.7594    1.4697    0.5467 C   0  0  0  0  0  0  0  0  0  0  0  0
   -0.9274    0.2940   -0.3850 C   0  0  0  0  0  0  0  0  0  0  0  0
   -2.3123   -0.2997   -0.3066 C   0  0  0  0  0  0  0  0  0  0  0  0
    0.1426   -0.7324   -0.2103 C   0  0  0  0  0  0  0  0  0  0  0  0
    0.2327   -1.4322    1.3882 Cl  0  0  0  0  0  0  0  0  0  0  0  0
    1.4491   -0.3923   -0.8299 C   0  0  0  0  0  0  0  0  0  0  0  0
    2.1747    1.0930   -0.2032 Cl  0  0  0  0  0  0  0  0  0  0  0  0
  1  2  1  0
  2  3  1  0
  2  4  1  0
  4  5  1  0
  4  6  1  0
  6  7  1  0
A    1
0.000
A    2
0.000
A    3
0.000
A    4
0.304
A    5
-0.304
A    6
0.270
A    7
-0.270
M  END
$$$$
