
     RDKit          3D

  5  4  0  0  0  0  0  0  0  0999 V2000
    1.8426   -0.4793   -0.7436 Cl  0  0  0  0  0  0  0  0  0  0  0  0
    0.7878   -0.5932    0.6488 C   0  0  0  0  0  0  0  0  0  0  0  0
   -0.5279    0.0706    0.4955 C   0  0  0  0  0  0  0  0  0  0  0  0
   -0.4618    1.7917    0.1809 Cl  0  0  0  0  0  0  0  0  0  0  0  0
   -1.6407   -0.7898   -0.5817 Cl  0  0  0  0  0  0  0  0  0  0  0  0
  1  2  1  0
  2  3  1  0
  3  4  1  0
  3  5  1  0
A    1
-0.270
A    2
0.270
A    3
0.500
A    4
-0.250
A    5
-0.250
M  END
$$$$
