
     RDKit          3D

  3  2  0  0  0  0  0  0  0  0999 V2000
   -1.2785   -0.3605   -0.0000 C   0  0  0  0  0  0  0  0  0  0  0  0
   -0.1341    0.6272   -0.0000 C   0  0  0  0  0  0  0  0  0  0  0  0
    1.4126   -0.2667    0.0000 Cl  0  0  0  0  0  0  0  0  0  0  0  0
  1  2  1  0
  2  3  1  0
A    1
0.000
A    2
0.270
A    3
-0.270
M  END
$$$$
