
     RDKit          3D

  5  4  0  0  0  0  0  0  0  0999 V2000
   -0.8431   -0.6121   -1.1324 C   0  0  0  0  0  0  0  0  0  0  0  0
   -0.0498   -0.0223   -0.0050 C   0  0  0  0  0  0  0  0  0  0  0  0
   -0.1510   -0.8884    1.2268 C   0  0  0  0  0  0  0  0  0  0  0  0
   -0.6253    1.3277    0.3406 C   0  0  0  0  0  0  0  0  0  0  0  0
    1.6690    0.1951   -0.4300 Cl  0  0  0  0  0  0  0  0  0  0  0  0
  1  2  1  0
  2  3  1  0
  2  4  1  0
  2  5  1  0
A    1
0.000
A    2
0.310
A    3
0.000
A    4
0.000
A    5
-0.310
M  END
$$$$
