
     RDKit          3D

  6  5  0  0  0  0  0  0  0  0999 V2000
    1.5417    1.1993   -0.4576 Cl  0  0  0  0  0  0  0  0  0  0  0  0
    1.3597   -0.5296   -0.1997 C   0  0  0  0  0  0  0  0  0  0  0  0
    0.0578   -1.0806   -0.7309 C   0  0  0  0  0  0  0  0  0  0  0  0
   -1.0760   -0.3790   -0.0211 C   0  0  0  0  0  0  0  0  0  0  0  0
   -0.9589    1.3629   -0.3505 Cl  0  0  0  0  0  0  0  0  0  0  0  0
   -0.9243   -0.5730    1.7598 Cl  0  0  0  0  0  0  0  0  0  0  0  0
  1  2  1  0
  2  3  1  0
  3  4  1  0
  4  5  1  0
  4  6  1  0
A    1
-0.270
A    2
0.270
A    3
0.000
A    4
0.500
A    5
-0.250
A    6
-0.250
M  END
$$$$
