
     RDKit          3D

 11 10  0  0  0  0  0  0  0  0999 V2000
    3.9928   -0.4261    1.6906 C   0  0  0  0  0  0  0  0  0  0  0  0
    2.6676   -0.2618    0.9850 C   0  0  0  0  0  0  0  0  0  0  0  0
    2.7803   -0.7359   -0.4653 C   0  0  0  0  0  0  0  0  0  0  0  0
    1.4454   -0.5637   -1.1541 C   0  0  0  0  0  0  0  0  0  0  0  0
    1.1025    0.9161   -1.0968 C   0  0  0  0  0  0  0  0  0  0  0  0
   -0.2121    1.1694   -1.7615 C   0  0  0  0  0  0  0  0  0  0  0  0
   -1.3074    0.4087   -1.0894 C   0  0  0  0  0  0  0  0  0  0  0  0
   -1.4644    0.7884    0.3699 C   0  0  0  0  0  0  0  0  0  0  0  0
   -2.5581    0.0298    1.0438 C   0  0  0  0  0  0  0  0  0  0  0  0
   -2.2867   -1.7282    1.0131 Cl  0  0  0  0  0  0  0  0  0  0  0  0
   -4.1600    0.4031    0.3694 Cl  0  0  0  0  0  0  0  0  0  0  0  0
  1  2  1  0
  2  3  1  0
  3  4  1  0
  4  5  1  0
  5  6  1  0
  6  7  1  0
  7  8  1  0
  8  9  1  0
  9 10  1  0
  9 11  1  0
A    1
0.000
A    2
0.000
A    3
0.000
A    4
0.000
A    5
0.000
A    6
0.000
A    7
0.000
A    8
0.000
A    9
0.500
A   10
-0.250
A   11
-0.250
M  END
$$$$
