
     RDKit          3D

  8  7  0  0  0  0  0  0  0  0999 V2000
    1.9703    0.3930    0.5736 C   0  0  0  0  0  0  0  0  0  0  0  0
    1.6867   -0.6660   -0.4532 C   0  0  0  0  0  0  0  0  0  0  0  0
    0.4290   -0.3846   -1.2492 C   0  0  0  0  0  0  0  0  0  0  0  0
   -0.7090   -0.3324   -0.2509 C   0  0  0  0  0  0  0  0  0  0  0  0
   -2.0351   -0.0574   -0.9082 C   0  0  0  0  0  0  0  0  0  0  0  0
   -0.7090   -1.8593    0.6537 Cl  0  0  0  0  0  0  0  0  0  0  0  0
   -0.3669    0.8136    0.7091 C   0  0  0  0  0  0  0  0  0  0  0  0
   -0.2660    2.0931   -0.1109 C   0  0  0  0  0  0  0  0  0  0  0  0
  1  2  1  0
  2  3  1  0
  3  4  1  0
  4  5  1  0
  4  6  1  0
  4  7  1  0
  7  8  1  0
A    1
0.000
A    2
0.000
A    3
0.000
A    4
0.310
A    5
0.000
A    6
-0.310
A    7
0.000
A    8
0.000
M  END
$$$$
