
     RDKit          3D

  6  5  0  0  0  0  0  0  0  0999 V2000
   -1.4504    0.3270    1.1753 C   0  0  0  0  0  0  0  0  0  0  0  0
   -0.4045    0.1139    0.1188 C   0  0  0  0  0  0  0  0  0  0  0  0
   -0.9510   -1.2595   -0.9068 Cl  0  0  0  0  0  0  0  0  0  0  0  0
   -0.2961    1.5701   -0.8734 Cl  0  0  0  0  0  0  0  0  0  0  0  0
    0.8839   -0.2351    0.8053 C   0  0  0  0  0  0  0  0  0  0  0  0
    2.2180   -0.5165   -0.3192 Cl  0  0  0  0  0  0  0  0  0  0  0  0
  1  2  1  0
  2  3  1  0
  2  4  1  0
  2  5  1  0
  5  6  1  0
A    1
0.000
A    2
0.520
A    3
-0.260
A    4
-0.260
A    5
0.270
A    6
-0.270
M  END
$$$$
