
     RDKit          3D

  9  8  0  0  0  0  0  0  0  0999 V2000
    2.1404   -0.8228   -1.0884 C   0  0  0  0  0  0  0  0  0  0  0  0
    2.0618   -0.2180    0.2900 C   0  0  0  0  0  0  0  0  0  0  0  0
    1.1268    0.9412    0.3834 C   0  0  0  0  0  0  0  0  0  0  0  0
   -0.2899    0.6295    0.0348 C   0  0  0  0  0  0  0  0  0  0  0  0
   -0.3611    0.1239   -1.3947 C   0  0  0  0  0  0  0  0  0  0  0  0
   -1.2452    2.1205    0.2431 Cl  0  0  0  0  0  0  0  0  0  0  0  0
   -0.9042   -0.4175    0.9540 C   0  0  0  0  0  0  0  0  0  0  0  0
   -2.3417   -0.6181    0.4644 C   0  0  0  0  0  0  0  0  0  0  0  0
   -0.1869   -1.7388    0.8449 C   0  0  0  0  0  0  0  0  0  0  0  0
  1  2  1  0
  2  3  1  0
  3  4  1  0
  4  5  1  0
  4  6  1  0
  4  7  1  0
  7  8  1  0
  7  9  1  0
A    1
0.000
A    2
0.000
A    3
0.000
A    4
0.310
A    5
0.000
A    6
-0.310
A    7
0.000
A    8
0.000
A    9
0.000
M  END
$$$$
