
     RDKit          3D

  8  7  0  0  0  0  0  0  0  0999 V2000
    3.3076   -0.2257   -0.0674 C   0  0  0  0  0  0  0  0  0  0  0  0
    2.2600    0.8630   -0.0434 C   0  0  0  0  0  0  0  0  0  0  0  0
    0.9306    0.3588   -0.5725 C   0  0  0  0  0  0  0  0  0  0  0  0
    0.4337   -0.8014    0.2825 C   0  0  0  0  0  0  0  0  0  0  0  0
   -0.8765   -1.2910   -0.2469 C   0  0  0  0  0  0  0  0  0  0  0  0
   -1.9628   -0.2718   -0.2589 C   0  0  0  0  0  0  0  0  0  0  0  0
   -2.3503    0.3738    1.3418 Cl  0  0  0  0  0  0  0  0  0  0  0  0
   -1.7423    0.9943   -1.4711 Cl  0  0  0  0  0  0  0  0  0  0  0  0
  1  2  1  0
  2  3  1  0
  3  4  1  0
  4  5  1  0
  5  6  1  0
  6  7  1  0
  6  8  1  0
A    1
0.000
A    2
0.000
A    3
0.000
A    4
0.000
A    5
0.000
A    6
0.500
A    7
-0.250
A    8
-0.250
M  END
$$$$
