
     RDKit          3D

  7  6  0  0  0  0  0  0  0  0999 V2000
    2.2139    0.7168   -0.3256 C   0  0  0  0  0  0  0  0  0  0  0  0
    1.3946    0.1409    0.8397 C   0  0  0  0  0  0  0  0  0  0  0  0
    0.2062   -0.5128    0.2953 C   0  0  0  0  0  0  0  0  0  0  0  0
    0.4360   -1.8269   -0.8065 Cl  0  0  0  0  0  0  0  0  0  0  0  0
   -1.0454    0.2227    0.2391 C   0  0  0  0  0  0  0  0  0  0  0  0
   -2.2335   -0.4408   -0.3089 C   0  0  0  0  0  0  0  0  0  0  0  0
   -0.9718    1.7001    0.0670 C   0  0  0  0  0  0  0  0  0  0  0  0
  1  2  1  0
  2  3  1  0
  3  4  1  0
  3  5  1  0
  5  6  1  0
  5  7  1  0
A    1
0.000
A    2
0.000
A    3
0.304
A    4
-0.304
A    5
0.000
A    6
0.000
A    7
0.000
M  END
$$$$
