
     RDKit          3D

  8  7  0  0  0  0  0  0  0  0999 V2000
    1.7224    0.8348    0.4968 C   0  0  0  0  0  0  0  0  0  0  0  0
    1.9609   -0.4652   -0.2282 C   0  0  0  0  0  0  0  0  0  0  0  0
    0.8867   -0.6780   -1.2749 C   0  0  0  0  0  0  0  0  0  0  0  0
   -0.4260   -0.7166   -0.5855 C   0  0  0  0  0  0  0  0  0  0  0  0
   -0.5747   -2.0092    0.6194 Cl  0  0  0  0  0  0  0  0  0  0  0  0
   -0.8066    0.5705    0.0869 C   0  0  0  0  0  0  0  0  0  0  0  0
   -2.1412    0.4718    0.7672 C   0  0  0  0  0  0  0  0  0  0  0  0
   -0.6215    1.9921   -0.9176 Cl  0  0  0  0  0  0  0  0  0  0  0  0
  1  2  1  0
  2  3  1  0
  3  4  1  0
  4  5  1  0
  4  6  1  0
  6  7  1  0
  6  8  1  0
A    1
0.000
A    2
0.000
A    3
0.000
A    4
0.304
A    5
-0.304
A    6
0.304
A    7
0.000
A    8
-0.304
M  END
$$$$
