
     RDKit          3D

  6  5  0  0  0  0  0  0  0  0999 V2000
    1.9230    0.2714    0.6406 C   0  0  0  0  0  0  0  0  0  0  0  0
    1.4974   -0.6154   -0.4798 C   0  0  0  0  0  0  0  0  0  0  0  0
    0.3714   -0.0502   -1.3100 C   0  0  0  0  0  0  0  0  0  0  0  0
   -0.8673    0.2130   -0.5622 C   0  0  0  0  0  0  0  0  0  0  0  0
   -0.8182    1.1573    0.5522 C   0  0  0  0  0  0  0  0  0  0  0  0
   -2.1064   -0.9762   -0.5847 Cl  0  0  0  0  0  0  0  0  0  0  0  0
  1  2  1  0
  2  3  1  0
  3  4  1  0
  4  5  1  0
  4  6  1  0
A    1
0.000
A    2
0.000
A    3
0.000
A    4
0.304
A    5
0.000
A    6
-0.304
M  END
$$$$
