
     RDKit          3D

  5  4  0  0  0  0  0  0  0  0999 V2000
   -1.7358   -0.9483   -0.0278 C   0  0  0  0  0  0  0  0  0  0  0  0
   -0.5211   -0.1621   -0.1385 C   0  0  0  0  0  0  0  0  0  0  0  0
   -0.6189    1.5584   -0.0939 Cl  0  0  0  0  0  0  0  0  0  0  0  0
    0.7640   -0.7845    0.2333 C   0  0  0  0  0  0  0  0  0  0  0  0
    2.1118    0.3365    0.0269 Cl  0  0  0  0  0  0  0  0  0  0  0  0
  1  2  1  0
  2  3  1  0
  2  4  1  0
  4  5  1  0
A    1
0.000
A    2
0.304
A    3
-0.304
A    4
0.270
A    5
-0.270
M  END
$$$$
