
     RDKit          3D

  9  8  0  0  0  0  0  0  0  0999 V2000
    3.5632   -0.4535    0.2653 C   0  0  0  0  0  0  0  0  0  0  0  0
    2.6058    0.5462    0.8941 C   0  0  0  0  0  0  0  0  0  0  0  0
    1.2201   -0.0456    0.7964 C   0  0  0  0  0  0  0  0  0  0  0  0
    0.8322   -0.2929   -0.6531 C   0  0  0  0  0  0  0  0  0  0  0  0
   -0.5396   -0.8770   -0.7209 C   0  0  0  0  0  0  0  0  0  0  0  0
   -1.5919    0.0278   -0.1148 C   0  0  0  0  0  0  0  0  0  0  0  0
   -1.2713    0.3569    1.5847 Cl  0  0  0  0  0  0  0  0  0  0  0  0
   -1.6448    1.5136   -1.0846 Cl  0  0  0  0  0  0  0  0  0  0  0  0
   -3.1737   -0.7756   -0.2356 Cl  0  0  0  0  0  0  0  0  0  0  0  0
  1  2  1  0
  2  3  1  0
  3  4  1  0
  4  5  1  0
  5  6  1  0
  6  7  1  0
  6  8  1  0
  6  9  1  0
A    1
0.000
A    2
0.000
A    3
0.000
A    4
0.000
A    5
0.000
A    6
0.672
A    7
-0.224
A    8
-0.224
A    9
-0.224
M  END
$$$$
