
     RDKit          3D

  9  8  0  0  0  0  0  0  0  0999 V2000
   -1.6423    1.4729   -0.2676 C   0  0  0  0  0  0  0  0  0  0  0  0
   -2.3672    0.2535    0.3056 C   0  0  0  0  0  0  0  0  0  0  0  0
   -1.4684   -0.9275    0.0658 C   0  0  0  0  0  0  0  0  0  0  0  0
   -0.1193   -0.7841    0.7356 C   0  0  0  0  0  0  0  0  0  0  0  0
   -0.2430   -0.6420    2.2247 C   0  0  0  0  0  0  0  0  0  0  0  0
    0.8302   -2.2370    0.3059 Cl  0  0  0  0  0  0  0  0  0  0  0  0
    0.5508    0.4246    0.1089 C   0  0  0  0  0  0  0  0  0  0  0  0
    1.9245    0.6071    0.7601 C   0  0  0  0  0  0  0  0  0  0  0  0
    2.5348    1.8326    0.0840 C   0  0  0  0  0  0  0  0  0  0  0  0
  1  2  1  0
  2  3  1  0
  3  4  1  0
  4  5  1  0
  4  6  1  0
  4  7  1  0
  7  8  1  0
  8  9  1  0
A    1
0.000
A    2
0.000
A    3
0.000
A    4
0.310
A    5
0.000
A    6
-0.310
A    7
0.000
A    8
0.000
A    9
0.000
M  END
$$$$
