
     RDKit          3D

  8  7  0  0  0  0  0  0  0  0999 V2000
    2.4884   -1.6159    0.0849 C   0  0  0  0  0  0  0  0  0  0  0  0
    2.4076   -0.3469   -0.7666 C   0  0  0  0  0  0  0  0  0  0  0  0
    0.9255   -0.0811   -0.9795 C   0  0  0  0  0  0  0  0  0  0  0  0
    0.3065    0.1055    0.3828 C   0  0  0  0  0  0  0  0  0  0  0  0
   -1.1800    0.3711    0.1491 C   0  0  0  0  0  0  0  0  0  0  0  0
   -1.7360   -0.8304   -0.5642 C   0  0  0  0  0  0  0  0  0  0  0  0
   -1.8208    0.5467    1.5100 C   0  0  0  0  0  0  0  0  0  0  0  0
   -1.3913    1.8509   -0.8526 Cl  0  0  0  0  0  0  0  0  0  0  0  0
  1  2  1  0
  2  3  1  0
  3  4  1  0
  4  5  1  0
  5  6  1  0
  5  7  1  0
  5  8  1  0
A    1
0.000
A    2
0.000
A    3
0.000
A    4
0.000
A    5
0.310
A    6
0.000
A    7
0.000
A    8
-0.310
M  END
$$$$
