
     RDKit          3D

  9  8  0  0  0  0  0  0  0  0999 V2000
    2.6603    1.9459    0.3119 C   0  0  0  0  0  0  0  0  0  0  0  0
    3.1060    0.6433   -0.3462 C   0  0  0  0  0  0  0  0  0  0  0  0
    2.2327   -0.4832    0.1025 C   0  0  0  0  0  0  0  0  0  0  0  0
    0.7697   -0.2393   -0.2677 C   0  0  0  0  0  0  0  0  0  0  0  0
    0.0001   -1.4440    0.2393 C   0  0  0  0  0  0  0  0  0  0  0  0
   -1.4661   -1.3654   -0.0445 C   0  0  0  0  0  0  0  0  0  0  0  0
   -2.1149   -0.1603    0.5936 C   0  0  0  0  0  0  0  0  0  0  0  0
   -1.3410    1.2995   -0.0458 Cl  0  0  0  0  0  0  0  0  0  0  0  0
   -3.8468   -0.1965    0.1883 Cl  0  0  0  0  0  0  0  0  0  0  0  0
  1  2  1  0
  2  3  1  0
  3  4  1  0
  4  5  1  0
  5  6  1  0
  6  7  1  0
  7  8  1  0
  7  9  1  0
A    1
0.000
A    2
0.000
A    3
0.000
A    4
0.000
A    5
0.000
A    6
0.000
A    7
0.500
A    8
-0.250
A    9
-0.250
M  END
$$$$
