
     RDKit          3D

 20 19  0  0  0  0  0  0  0  0999 V2000
   -1.9628   -0.5767    1.1025 C   0  0  0  0  0  0  0  0  0  0  0  0
   -0.7193    0.1301    0.5487 C   0  0  0  0  0  0  0  0  0  0  0  0
   -1.1562    1.1382   -0.4574 C   0  0  0  0  0  0  0  0  0  0  0  0
    0.1899   -0.9299    0.0403 C   0  0  0  0  0  0  0  0  0  0  0  0
    1.4718   -0.4351   -0.5459 C   0  0  0  0  0  0  0  0  0  0  0  0
    2.2613    0.3311    0.4797 C   0  0  0  0  0  0  0  0  0  0  0  0
    1.2661    0.6874   -2.2997 I   0  0  0  0  0  0  0  0  0  0  0  0
   -2.0302   -1.6105    0.7535 H   0  0  0  0  0  0  0  0  0  0  0  0
   -1.9021   -0.6217    2.2264 H   0  0  0  0  0  0  0  0  0  0  0  0
   -2.8685   -0.0345    0.7875 H   0  0  0  0  0  0  0  0  0  0  0  0
   -0.2424    0.6564    1.3906 H   0  0  0  0  0  0  0  0  0  0  0  0
   -2.1324    1.5776   -0.0911 H   0  0  0  0  0  0  0  0  0  0  0  0
   -1.4081    0.7071   -1.4537 H   0  0  0  0  0  0  0  0  0  0  0  0
   -0.4594    1.9851   -0.5086 H   0  0  0  0  0  0  0  0  0  0  0  0
   -0.3261   -1.6128   -0.6781 H   0  0  0  0  0  0  0  0  0  0  0  0
    0.4685   -1.5693    0.9070 H   0  0  0  0  0  0  0  0  0  0  0  0
    2.0844   -1.3541   -0.7857 H   0  0  0  0  0  0  0  0  0  0  0  0
    3.3588    0.1716    0.2807 H   0  0  0  0  0  0  0  0  0  0  0  0
    2.0783   -0.0522    1.5044 H   0  0  0  0  0  0  0  0  0  0  0  0
    2.0285    1.4123    0.4135 H   0  0  0  0  0  0  0  0  0  0  0  0
  1  2  1  0
  2  3  1  0
  2  4  1  0
  4  5  1  0
  5  6  1  0
  5  7  1  0
  1  8  1  0
  1  9  1  0
  1 10  1  0
  2 11  1  0
  3 12  1  0
  3 13  1  0
  3 14  1  0
  4 15  1  0
  4 16  1  0
  5 17  1  0
  6 18  1  0
  6 19  1  0
  6 20  1  0
A    1
-0.364197
A    2
0.130487
A    3
-0.363761
A    4
-0.194318
A    5
0.119041
A    6
-0.365994
A    7
-0.223059
A    8
0.105470
A    9
0.098059
A   10
0.103050
A   11
0.041156
A   12
0.102992
A   13
0.101495
A   14
0.095057
A   15
0.084605
A   16
0.084429
A   17
0.084734
A   18
0.118477
A   19
0.122406
A   20
0.119872
M  END
