
     RDKit          3D

 14 13  0  0  0  0  0  0  0  0999 V2000
    2.7111   -0.7039   -0.5438 I   0  0  0  0  0  0  0  0  0  0  0  0
    1.2865   -0.0381    0.8784 C   0  0  0  0  0  0  0  0  0  0  0  0
    0.3890    1.0324    0.3289 C   0  0  0  0  0  0  0  0  0  0  0  0
   -0.3965    0.5659   -0.8754 C   0  0  0  0  0  0  0  0  0  0  0  0
   -1.2794   -0.6115   -0.5479 C   0  0  0  0  0  0  0  0  0  0  0  0
   -2.6738   -0.0541    0.9927 I   0  0  0  0  0  0  0  0  0  0  0  0
    1.8341    0.4215    1.7423 H   0  0  0  0  0  0  0  0  0  0  0  0
    0.6977   -0.8681    1.3125 H   0  0  0  0  0  0  0  0  0  0  0  0
   -0.3442    1.2855    1.1248 H   0  0  0  0  0  0  0  0  0  0  0  0
    0.9613    1.9549    0.1102 H   0  0  0  0  0  0  0  0  0  0  0  0
   -1.0353    1.4118   -1.1988 H   0  0  0  0  0  0  0  0  0  0  0  0
    0.2540    0.2876   -1.7213 H   0  0  0  0  0  0  0  0  0  0  0  0
   -0.5997   -1.4172   -0.1627 H   0  0  0  0  0  0  0  0  0  0  0  0
   -1.8048   -0.9695   -1.4398 H   0  0  0  0  0  0  0  0  0  0  0  0
  1  2  1  0
  2  3  1  0
  3  4  1  0
  4  5  1  0
  5  6  1  0
  2  7  1  0
  2  8  1  0
  3  9  1  0
  3 10  1  0
  4 11  1  0
  4 12  1  0
  5 13  1  0
  5 14  1  0
A    1
-0.175107
A    2
-0.129534
A    3
-0.111985
A    4
-0.114209
A    5
-0.129474
A    6
-0.174735
A    7
0.125292
A    8
0.125846
A    9
0.081548
A   10
0.084913
A   11
0.085313
A   12
0.081665
A   13
0.124948
A   14
0.125520
M  END
