
     RDKit          3D

 29 28  0  0  0  0  0  0  0  0999 V2000
    3.7188    1.3700    0.3903 C   0  0  0  0  0  0  0  0  0  0  0  0
    2.4608    0.4519    0.5710 C   0  0  0  0  0  0  0  0  0  0  0  0
    2.2924   -0.2374   -0.7131 C   0  0  0  0  0  0  0  0  0  0  0  0
    1.2872   -1.2615   -0.9527 C   0  0  0  0  0  0  0  0  0  0  0  0
   -0.1558   -1.0481   -0.8020 C   0  0  0  0  0  0  0  0  0  0  0  0
   -0.5953   -0.7894    0.5962 C   0  0  0  0  0  0  0  0  0  0  0  0
   -2.1037   -0.5978    0.6982 C   0  0  0  0  0  0  0  0  0  0  0  0
   -2.6093    0.5557   -0.1106 C   0  0  0  0  0  0  0  0  0  0  0  0
   -4.1152    0.6781    0.0571 C   0  0  0  0  0  0  0  0  0  0  0  0
   -4.8188    2.3187   -1.0960 I   0  0  0  0  0  0  0  0  0  0  0  0
    4.5328    0.7832   -0.0743 H   0  0  0  0  0  0  0  0  0  0  0  0
    4.0699    1.7038    1.3840 H   0  0  0  0  0  0  0  0  0  0  0  0
    3.4315    2.2473   -0.2080 H   0  0  0  0  0  0  0  0  0  0  0  0
    1.6332    1.2164    0.7382 H   0  0  0  0  0  0  0  0  0  0  0  0
    2.5990   -0.1242    1.4713 H   0  0  0  0  0  0  0  0  0  0  0  0
    2.1932    0.5865   -1.5040 H   0  0  0  0  0  0  0  0  0  0  0  0
    3.3045   -0.6866   -0.9745 H   0  0  0  0  0  0  0  0  0  0  0  0
    1.4418   -1.5983   -2.0509 H   0  0  0  0  0  0  0  0  0  0  0  0
    1.5894   -2.2469   -0.4286 H   0  0  0  0  0  0  0  0  0  0  0  0
   -0.5093   -0.1786   -1.4243 H   0  0  0  0  0  0  0  0  0  0  0  0
   -0.7453   -1.9495   -1.1849 H   0  0  0  0  0  0  0  0  0  0  0  0
   -0.0787    0.0136    1.0940 H   0  0  0  0  0  0  0  0  0  0  0  0
   -0.4093   -1.7579    1.1729 H   0  0  0  0  0  0  0  0  0  0  0  0
   -2.5569   -1.5589    0.4107 H   0  0  0  0  0  0  0  0  0  0  0  0
   -2.3377   -0.4085    1.7518 H   0  0  0  0  0  0  0  0  0  0  0  0
   -2.4158    0.4081   -1.2126 H   0  0  0  0  0  0  0  0  0  0  0  0
   -2.1613    1.4949    0.2349 H   0  0  0  0  0  0  0  0  0  0  0  0
   -4.6503   -0.2424   -0.2192 H   0  0  0  0  0  0  0  0  0  0  0  0
   -4.2919    0.8576    1.1542 H   0  0  0  0  0  0  0  0  0  0  0  0
  1  2  1  0
  2  3  1  0
  3  4  1  0
  4  5  1  0
  5  6  1  0
  6  7  1  0
  7  8  1  0
  8  9  1  0
  9 10  1  0
  1 11  1  0
  1 12  1  0
  1 13  1  0
  2 14  1  0
  2 15  1  0
  3 16  1  0
  3 17  1  0
  4 18  1  0
  4 19  1  0
  5 20  1  0
  5 21  1  0
  6 22  1  0
  6 23  1  0
  7 24  1  0
  7 25  1  0
  8 26  1  0
  8 27  1  0
  9 28  1  0
  9 29  1  0
A    1
-0.327824
A    2
-0.073825
A    3
-0.122825
A    4
-0.122908
A    5
-0.120946
A    6
-0.122597
A    7
-0.120937
A    8
-0.116836
A    9
-0.121116
A   10
-0.191687
A   11
0.095405
A   12
0.093941
A   13
0.096349
A   14
0.059115
A   15
0.060438
A   16
0.064899
A   17
0.061065
A   18
0.057772
A   19
0.064342
A   20
0.063803
A   21
0.061205
A   22
0.066223
A   23
0.065759
A   24
0.069773
A   25
0.067222
A   26
0.076673
A   27
0.079481
A   28
0.119068
A   29
0.118967
M  END
