
     RDKit          3D

 20 19  0  0  0  0  0  0  0  0999 V2000
   -2.6103   -0.9056    2.1844 I   0  0  0  0  0  0  0  0  0  0  0  0
   -2.4590    0.4937    0.5653 C   0  0  0  0  0  0  0  0  0  0  0  0
   -1.9712   -0.2031   -0.6998 C   0  0  0  0  0  0  0  0  0  0  0  0
   -0.6318   -0.8259   -0.5221 C   0  0  0  0  0  0  0  0  0  0  0  0
    0.4355    0.1943   -0.1526 C   0  0  0  0  0  0  0  0  0  0  0  0
    1.7759   -0.5201    0.0120 C   0  0  0  0  0  0  0  0  0  0  0  0
    2.8096    0.5204    0.3773 C   0  0  0  0  0  0  0  0  0  0  0  0
    2.9798    2.0010   -1.1294 I   0  0  0  0  0  0  0  0  0  0  0  0
   -3.4820    0.8931    0.4108 H   0  0  0  0  0  0  0  0  0  0  0  0
   -1.8183    1.3588    0.8351 H   0  0  0  0  0  0  0  0  0  0  0  0
   -2.6997   -1.0139   -0.9067 H   0  0  0  0  0  0  0  0  0  0  0  0
   -2.0081    0.5513   -1.5012 H   0  0  0  0  0  0  0  0  0  0  0  0
   -0.3273   -1.2628   -1.4940 H   0  0  0  0  0  0  0  0  0  0  0  0
   -0.6820   -1.6442    0.2005 H   0  0  0  0  0  0  0  0  0  0  0  0
    0.5611    0.9528   -0.9501 H   0  0  0  0  0  0  0  0  0  0  0  0
    0.1235    0.6606    0.8031 H   0  0  0  0  0  0  0  0  0  0  0  0
    1.6810   -1.1942    0.8972 H   0  0  0  0  0  0  0  0  0  0  0  0
    2.0549   -1.0760   -0.8802 H   0  0  0  0  0  0  0  0  0  0  0  0
    3.7962    0.0592    0.5891 H   0  0  0  0  0  0  0  0  0  0  0  0
    2.4723    0.9607    1.3612 H   0  0  0  0  0  0  0  0  0  0  0  0
  1  2  1  0
  2  3  1  0
  3  4  1  0
  4  5  1  0
  5  6  1  0
  6  7  1  0
  7  8  1  0
  2  9  1  0
  2 10  1  0
  3 11  1  0
  3 12  1  0
  4 13  1  0
  4 14  1  0
  5 15  1  0
  5 16  1  0
  6 17  1  0
  6 18  1  0
  7 19  1  0
  7 20  1  0
A    1
-0.179781
A    2
-0.119468
A    3
-0.111526
A    4
-0.127597
A    5
-0.129513
A    6
-0.112211
A    7
-0.118557
A    8
-0.180864
A    9
0.118728
A   10
0.116034
A   11
0.076532
A   12
0.088376
A   13
0.076765
A   14
0.062433
A   15
0.064562
A   16
0.072827
A   17
0.089435
A   18
0.079923
A   19
0.115842
A   20
0.118058
M  END
