
     RDKit          3D

 14 13  0  0  0  0  0  0  0  0999 V2000
    1.8598    0.2996   -0.2253 C   0  0  0  0  0  0  0  0  0  0  0  0
    0.5333   -0.4346   -0.3306 C   0  0  0  0  0  0  0  0  0  0  0  0
   -0.5777    0.3239    0.3431 C   0  0  0  0  0  0  0  0  0  0  0  0
   -1.8530   -0.4468    0.2061 C   0  0  0  0  0  0  0  0  0  0  0  0
   -0.1190    0.8403    2.3456 I   0  0  0  0  0  0  0  0  0  0  0  0
   -0.8391    2.1703   -0.7306 I   0  0  0  0  0  0  0  0  0  0  0  0
    2.5153   -0.1405   -1.0246 H   0  0  0  0  0  0  0  0  0  0  0  0
    1.6639    1.3563   -0.4409 H   0  0  0  0  0  0  0  0  0  0  0  0
    2.3707    0.1030    0.7252 H   0  0  0  0  0  0  0  0  0  0  0  0
    0.6811   -1.4409    0.1119 H   0  0  0  0  0  0  0  0  0  0  0  0
    0.3156   -0.5796   -1.3972 H   0  0  0  0  0  0  0  0  0  0  0  0
   -2.0557   -1.0934    1.0896 H   0  0  0  0  0  0  0  0  0  0  0  0
   -2.7395    0.1805    0.0066 H   0  0  0  0  0  0  0  0  0  0  0  0
   -1.7558   -1.1380   -0.6790 H   0  0  0  0  0  0  0  0  0  0  0  0
  1  2  1  0
  2  3  1  0
  3  4  1  0
  3  5  1  0
  3  6  1  0
  1  7  1  0
  1  8  1  0
  1  9  1  0
  2 10  1  0
  2 11  1  0
  4 12  1  0
  4 13  1  0
  4 14  1  0
A    1
-0.321317
A    2
-0.132925
A    3
0.199645
A    4
-0.403251
A    5
-0.135098
A    6
-0.139807
A    7
0.113378
A    8
0.101116
A    9
0.101940
A   10
0.103002
A   11
0.101027
A   12
0.137776
A   13
0.135240
A   14
0.139275
M  END
