
     RDKit          3D

 20 19  0  0  0  0  0  0  0  0999 V2000
    1.6042    0.8820    1.0554 C   0  0  0  0  0  0  0  0  0  0  0  0
    1.1130   -0.2711    0.2391 C   0  0  0  0  0  0  0  0  0  0  0  0
    2.2948   -0.5439   -1.5130 I   0  0  0  0  0  0  0  0  0  0  0  0
   -0.3258   -0.1601   -0.1705 C   0  0  0  0  0  0  0  0  0  0  0  0
   -0.6332    1.0427   -0.9995 C   0  0  0  0  0  0  0  0  0  0  0  0
   -0.6425   -1.3961   -1.0146 C   0  0  0  0  0  0  0  0  0  0  0  0
   -1.2258   -0.2363    1.0436 C   0  0  0  0  0  0  0  0  0  0  0  0
    2.2577    1.5118    0.4094 H   0  0  0  0  0  0  0  0  0  0  0  0
    2.2901    0.5185    1.8767 H   0  0  0  0  0  0  0  0  0  0  0  0
    0.7882    1.4713    1.5205 H   0  0  0  0  0  0  0  0  0  0  0  0
    1.2065   -1.1944    0.8556 H   0  0  0  0  0  0  0  0  0  0  0  0
    0.2276    1.7236   -1.1442 H   0  0  0  0  0  0  0  0  0  0  0  0
   -1.4909    1.5786   -0.5351 H   0  0  0  0  0  0  0  0  0  0  0  0
   -0.9767    0.7717   -2.0374 H   0  0  0  0  0  0  0  0  0  0  0  0
   -0.3616   -1.1327   -2.0554 H   0  0  0  0  0  0  0  0  0  0  0  0
   -1.7359   -1.5473   -0.9742 H   0  0  0  0  0  0  0  0  0  0  0  0
   -0.0549   -2.2563   -0.6563 H   0  0  0  0  0  0  0  0  0  0  0  0
   -0.8513   -1.0239    1.7196 H   0  0  0  0  0  0  0  0  0  0  0  0
   -1.2068    0.7204    1.6223 H   0  0  0  0  0  0  0  0  0  0  0  0
   -2.2767   -0.4583    0.7578 H   0  0  0  0  0  0  0  0  0  0  0  0
  1  2  1  0
  2  3  1  0
  2  4  1  0
  4  5  1  0
  4  6  1  0
  4  7  1  0
  1  8  1  0
  1  9  1  0
  1 10  1  0
  2 11  1  0
  5 12  1  0
  5 13  1  0
  5 14  1  0
  6 15  1  0
  6 16  1  0
  6 17  1  0
  7 18  1  0
  7 19  1  0
  7 20  1  0
A    1
-0.358425
A    2
0.050961
A    3
-0.210794
A    4
0.238824
A    5
-0.380688
A    6
-0.384852
A    7
-0.376865
A    8
0.116474
A    9
0.118280
A   10
0.120318
A   11
0.087992
A   12
0.107697
A   13
0.114863
A   14
0.103329
A   15
0.103064
A   16
0.110666
A   17
0.107778
A   18
0.109294
A   19
0.107548
A   20
0.114536
M  END
