
     RDKit          3D

 11 10  0  0  0  0  0  0  0  0999 V2000
   -1.2604   -0.0903    0.3684 C   0  0  0  0  0  0  0  0  0  0  0  0
    0.0017   -0.6505   -0.2564 C   0  0  0  0  0  0  0  0  0  0  0  0
    1.0932    0.4047   -0.0345 C   0  0  0  0  0  0  0  0  0  0  0  0
    2.9462   -0.2177   -0.8530 I   0  0  0  0  0  0  0  0  0  0  0  0
    0.4878    2.2888   -0.8100 I   0  0  0  0  0  0  0  0  0  0  0  0
   -1.2687   -0.3198    1.4512 H   0  0  0  0  0  0  0  0  0  0  0  0
   -1.2358    1.0102    0.2254 H   0  0  0  0  0  0  0  0  0  0  0  0
   -2.1763   -0.5262   -0.0905 H   0  0  0  0  0  0  0  0  0  0  0  0
    0.3233   -1.5791    0.2543 H   0  0  0  0  0  0  0  0  0  0  0  0
   -0.1516   -0.8610   -1.3117 H   0  0  0  0  0  0  0  0  0  0  0  0
    1.2406    0.5410    1.0569 H   0  0  0  0  0  0  0  0  0  0  0  0
  1  2  1  0
  2  3  1  0
  3  4  1  0
  3  5  1  0
  1  6  1  0
  1  7  1  0
  1  8  1  0
  2  9  1  0
  2 10  1  0
  3 11  1  0
A    1
-0.317830
A    2
-0.095916
A    3
0.016706
A    4
-0.142211
A    5
-0.125321
A    6
0.109256
A    7
0.097788
A    8
0.113348
A    9
0.094220
A   10
0.089816
A   11
0.160145
M  END
