
     RDKit          3D

 20 19  0  0  0  0  0  0  0  0999 V2000
    2.2661   -0.5468   -0.1599 C   0  0  0  0  0  0  0  0  0  0  0  0
    1.2636   -0.5574    0.9576 C   0  0  0  0  0  0  0  0  0  0  0  0
    0.2131    0.5356    0.7852 C   0  0  0  0  0  0  0  0  0  0  0  0
   -1.1579    0.4366    2.4161 I   0  0  0  0  0  0  0  0  0  0  0  0
   -0.5430    0.3050   -0.5296 C   0  0  0  0  0  0  0  0  0  0  0  0
   -1.5866    1.3805   -0.7133 C   0  0  0  0  0  0  0  0  0  0  0  0
   -1.3039   -1.0122   -0.4151 C   0  0  0  0  0  0  0  0  0  0  0  0
    3.3178   -0.5428    0.2350 H   0  0  0  0  0  0  0  0  0  0  0  0
    2.1839    0.3637   -0.7907 H   0  0  0  0  0  0  0  0  0  0  0  0
    2.1981   -1.4724   -0.7767 H   0  0  0  0  0  0  0  0  0  0  0  0
    1.8144   -0.3118    1.9007 H   0  0  0  0  0  0  0  0  0  0  0  0
    0.7577   -1.5359    1.0920 H   0  0  0  0  0  0  0  0  0  0  0  0
    0.6583    1.5343    0.7693 H   0  0  0  0  0  0  0  0  0  0  0  0
    0.1316    0.3254   -1.3843 H   0  0  0  0  0  0  0  0  0  0  0  0
   -2.1671    1.1414   -1.6126 H   0  0  0  0  0  0  0  0  0  0  0  0
   -2.3110    1.3856    0.1515 H   0  0  0  0  0  0  0  0  0  0  0  0
   -1.1581    2.3928   -0.7514 H   0  0  0  0  0  0  0  0  0  0  0  0
   -1.9796   -1.0469   -1.3092 H   0  0  0  0  0  0  0  0  0  0  0  0
   -1.9576   -0.9001    0.4906 H   0  0  0  0  0  0  0  0  0  0  0  0
   -0.6397   -1.8747   -0.3551 H   0  0  0  0  0  0  0  0  0  0  0  0
  1  2  1  0
  2  3  1  0
  3  4  1  0
  3  5  1  0
  5  6  1  0
  5  7  1  0
  1  8  1  0
  1  9  1  0
  1 10  1  0
  2 11  1  0
  2 12  1  0
  3 13  1  0
  5 14  1  0
  6 15  1  0
  6 16  1  0
  6 17  1  0
  7 18  1  0
  7 19  1  0
  7 20  1  0
A    1
-0.320788
A    2
-0.109175
A    3
0.019882
A    4
-0.215086
A    5
0.101381
A    6
-0.366405
A    7
-0.358357
A    8
0.109265
A    9
0.104440
A   10
0.099584
A   11
0.078019
A   12
0.077857
A   13
0.088778
A   14
0.059798
A   15
0.107921
A   16
0.102713
A   17
0.105270
A   18
0.108848
A   19
0.103146
A   20
0.102908
M  END
