
     RDKit          3D

 20 19  0  0  0  0  0  0  0  0999 V2000
    2.1801   -0.3257   -0.4687 C   0  0  0  0  0  0  0  0  0  0  0  0
    1.2983    0.8534   -0.3376 C   0  0  0  0  0  0  0  0  0  0  0  0
   -0.1000    0.5587    0.1145 C   0  0  0  0  0  0  0  0  0  0  0  0
   -0.0659   -0.1033    1.4753 C   0  0  0  0  0  0  0  0  0  0  0  0
   -0.8697   -0.3233   -0.8186 C   0  0  0  0  0  0  0  0  0  0  0  0
   -2.2538   -0.5338   -0.2375 C   0  0  0  0  0  0  0  0  0  0  0  0
   -3.2438    1.3566   -0.0302 I   0  0  0  0  0  0  0  0  0  0  0  0
    2.9408   -0.3442    0.3588 H   0  0  0  0  0  0  0  0  0  0  0  0
    1.6706   -1.3055   -0.4198 H   0  0  0  0  0  0  0  0  0  0  0  0
    2.7787   -0.3315   -1.4144 H   0  0  0  0  0  0  0  0  0  0  0  0
    1.2506    1.3644   -1.3420 H   0  0  0  0  0  0  0  0  0  0  0  0
    1.7211    1.6132    0.3554 H   0  0  0  0  0  0  0  0  0  0  0  0
   -0.6493    1.5159    0.2236 H   0  0  0  0  0  0  0  0  0  0  0  0
   -1.0341    0.0444    2.0120 H   0  0  0  0  0  0  0  0  0  0  0  0
    0.7192    0.4558    2.0622 H   0  0  0  0  0  0  0  0  0  0  0  0
    0.2059   -1.1764    1.3835 H   0  0  0  0  0  0  0  0  0  0  0  0
   -0.3854   -1.3162   -0.9034 H   0  0  0  0  0  0  0  0  0  0  0  0
   -1.0272    0.1300   -1.8186 H   0  0  0  0  0  0  0  0  0  0  0  0
   -2.8886   -1.1308   -0.9430 H   0  0  0  0  0  0  0  0  0  0  0  0
   -2.2474   -1.0018    0.7485 H   0  0  0  0  0  0  0  0  0  0  0  0
  1  2  1  0
  2  3  1  0
  3  4  1  0
  3  5  1  0
  5  6  1  0
  6  7  1  0
  1  8  1  0
  1  9  1  0
  1 10  1  0
  2 11  1  0
  2 12  1  0
  3 13  1  0
  4 14  1  0
  4 15  1  0
  4 16  1  0
  5 17  1  0
  5 18  1  0
  6 19  1  0
  6 20  1  0
A    1
-0.321534
A    2
-0.108756
A    3
0.071185
A    4
-0.360653
A    5
-0.145142
A    6
-0.118875
A    7
-0.182201
A    8
0.096643
A    9
0.095991
A   10
0.099361
A   11
0.061570
A   12
0.064300
A   13
0.037800
A   14
0.101550
A   15
0.106077
A   16
0.100921
A   17
0.087322
A   18
0.079131
A   19
0.117716
A   20
0.117593
M  END
