
     RDKit          3D

 14 13  0  0  0  0  0  0  0  0999 V2000
   -1.1328   -0.5183   -0.7107 C   0  0  0  0  0  0  0  0  0  0  0  0
    0.0696    0.2871   -0.3738 C   0  0  0  0  0  0  0  0  0  0  0  0
   -0.1850    1.2747    0.7562 C   0  0  0  0  0  0  0  0  0  0  0  0
    1.2437   -0.5826    0.0905 C   0  0  0  0  0  0  0  0  0  0  0  0
    0.7516   -1.7007    1.8203 I   0  0  0  0  0  0  0  0  0  0  0  0
    1.7905   -1.9482   -1.4518 I   0  0  0  0  0  0  0  0  0  0  0  0
   -1.9120   -0.3078    0.0684 H   0  0  0  0  0  0  0  0  0  0  0  0
   -0.9694   -1.6221   -0.6802 H   0  0  0  0  0  0  0  0  0  0  0  0
   -1.5338   -0.3182   -1.7395 H   0  0  0  0  0  0  0  0  0  0  0  0
    0.4245    0.8492   -1.2476 H   0  0  0  0  0  0  0  0  0  0  0  0
   -0.7054    2.1954    0.3724 H   0  0  0  0  0  0  0  0  0  0  0  0
   -0.7725    0.7986    1.5838 H   0  0  0  0  0  0  0  0  0  0  0  0
    0.7992    1.5398    1.2271 H   0  0  0  0  0  0  0  0  0  0  0  0
    2.1317    0.0533    0.2849 H   0  0  0  0  0  0  0  0  0  0  0  0
  1  2  1  0
  2  3  1  0
  2  4  1  0
  4  5  1  0
  4  6  1  0
  1  7  1  0
  1  8  1  0
  1  9  1  0
  2 10  1  0
  3 11  1  0
  3 12  1  0
  3 13  1  0
  4 14  1  0
A    1
-0.362615
A    2
0.115966
A    3
-0.356421
A    4
-0.025212
A    5
-0.116002
A    6
-0.138714
A    7
0.105891
A    8
0.102989
A    9
0.114284
A   10
0.069548
A   11
0.116919
A   12
0.103559
A   13
0.109619
A   14
0.160189
M  END
