
     RDKit          3D

 20 19  0  0  0  0  0  0  0  0999 V2000
   -1.8600   -1.1926    0.5854 C   0  0  0  0  0  0  0  0  0  0  0  0
   -1.3937    0.2213    0.8355 C   0  0  0  0  0  0  0  0  0  0  0  0
   -0.1579    0.4438   -0.0370 C   0  0  0  0  0  0  0  0  0  0  0  0
    0.3103    1.8433    0.2055 C   0  0  0  0  0  0  0  0  0  0  0  0
   -0.6477    0.1883   -2.0940 I   0  0  0  0  0  0  0  0  0  0  0  0
    0.8329   -0.6153    0.3315 C   0  0  0  0  0  0  0  0  0  0  0  0
    2.1164   -0.5311   -0.4480 C   0  0  0  0  0  0  0  0  0  0  0  0
   -2.9514   -1.2725    0.7447 H   0  0  0  0  0  0  0  0  0  0  0  0
   -1.2786   -1.8701    1.2367 H   0  0  0  0  0  0  0  0  0  0  0  0
   -1.6190   -1.4515   -0.4598 H   0  0  0  0  0  0  0  0  0  0  0  0
   -1.1817    0.4393    1.8900 H   0  0  0  0  0  0  0  0  0  0  0  0
   -2.2130    0.8949    0.5236 H   0  0  0  0  0  0  0  0  0  0  0  0
    0.3976    2.3869   -0.7743 H   0  0  0  0  0  0  0  0  0  0  0  0
    1.2879    1.9073    0.7003 H   0  0  0  0  0  0  0  0  0  0  0  0
   -0.4281    2.4489    0.7926 H   0  0  0  0  0  0  0  0  0  0  0  0
    1.0046   -0.6982    1.4274 H   0  0  0  0  0  0  0  0  0  0  0  0
    0.3529   -1.5918    0.0431 H   0  0  0  0  0  0  0  0  0  0  0  0
    2.2360   -1.3540   -1.1828 H   0  0  0  0  0  0  0  0  0  0  0  0
    2.9580   -0.6079    0.2926 H   0  0  0  0  0  0  0  0  0  0  0  0
    2.2343    0.4108   -0.9985 H   0  0  0  0  0  0  0  0  0  0  0  0
  1  2  1  0
  2  3  1  0
  3  4  1  0
  3  5  1  0
  3  6  1  0
  6  7  1  0
  1  8  1  0
  1  9  1  0
  1 10  1  0
  2 11  1  0
  2 12  1  0
  4 13  1  0
  4 14  1  0
  4 15  1  0
  6 16  1  0
  6 17  1  0
  7 18  1  0
  7 19  1  0
  7 20  1  0
A    1
-0.322371
A    2
-0.140810
A    3
0.221690
A    4
-0.401266
A    5
-0.228039
A    6
-0.137513
A    7
-0.316830
A    8
0.107000
A    9
0.101920
A   10
0.096589
A   11
0.087884
A   12
0.081776
A   13
0.121498
A   14
0.125545
A   15
0.123630
A   16
0.090559
A   17
0.082445
A   18
0.096435
A   19
0.106095
A   20
0.103762
M  END
