
     RDKit          3D

 23 22  0  0  0  0  0  0  0  0999 V2000
   -2.7369    0.6262    0.2799 C   0  0  0  0  0  0  0  0  0  0  0  0
   -2.3371   -0.5265   -0.6110 C   0  0  0  0  0  0  0  0  0  0  0  0
   -1.0585   -1.1132   -0.0230 C   0  0  0  0  0  0  0  0  0  0  0  0
    0.0066   -0.0359   -0.0098 C   0  0  0  0  0  0  0  0  0  0  0  0
    1.2718   -0.6543    0.5834 C   0  0  0  0  0  0  0  0  0  0  0  0
    0.9637   -1.3535    2.5452 I   0  0  0  0  0  0  0  0  0  0  0  0
    2.3293    0.4220    0.5796 C   0  0  0  0  0  0  0  0  0  0  0  0
    2.5878    0.8988   -0.8424 C   0  0  0  0  0  0  0  0  0  0  0  0
   -2.4356    0.3459    1.3289 H   0  0  0  0  0  0  0  0  0  0  0  0
   -3.8262    0.8354    0.2174 H   0  0  0  0  0  0  0  0  0  0  0  0
   -2.1387    1.5089   -0.0371 H   0  0  0  0  0  0  0  0  0  0  0  0
   -2.0647   -0.1724   -1.6351 H   0  0  0  0  0  0  0  0  0  0  0  0
   -3.1258   -1.2643   -0.7270 H   0  0  0  0  0  0  0  0  0  0  0  0
   -0.7559   -1.9469   -0.6526 H   0  0  0  0  0  0  0  0  0  0  0  0
   -1.2007   -1.4434    1.0263 H   0  0  0  0  0  0  0  0  0  0  0  0
    0.2051    0.2600   -1.0599 H   0  0  0  0  0  0  0  0  0  0  0  0
   -0.2965    0.8555    0.5452 H   0  0  0  0  0  0  0  0  0  0  0  0
    1.5550   -1.4830   -0.1100 H   0  0  0  0  0  0  0  0  0  0  0  0
    1.9131    1.2930    1.1361 H   0  0  0  0  0  0  0  0  0  0  0  0
    3.2481    0.0571    1.0669 H   0  0  0  0  0  0  0  0  0  0  0  0
    2.0200    1.8246   -1.0669 H   0  0  0  0  0  0  0  0  0  0  0  0
    2.2139    0.0950   -1.5332 H   0  0  0  0  0  0  0  0  0  0  0  0
    3.6623    0.9711   -1.0010 H   0  0  0  0  0  0  0  0  0  0  0  0
  1  2  1  0
  2  3  1  0
  3  4  1  0
  4  5  1  0
  5  6  1  0
  5  7  1  0
  7  8  1  0
  1  9  1  0
  1 10  1  0
  1 11  1  0
  2 12  1  0
  2 13  1  0
  3 14  1  0
  3 15  1  0
  4 16  1  0
  4 17  1  0
  5 18  1  0
  7 19  1  0
  7 20  1  0
  8 21  1  0
  8 22  1  0
  8 23  1  0
A    1
-0.323519
A    2
-0.070243
A    3
-0.129609
A    4
-0.160223
A    5
0.065385
A    6
-0.225069
A    7
-0.112527
A    8
-0.318807
A    9
0.100135
A   10
0.096123
A   11
0.096966
A   12
0.059519
A   13
0.060842
A   14
0.068128
A   15
0.065057
A   16
0.086648
A   17
0.082384
A   18
0.088121
A   19
0.082004
A   20
0.076796
A   21
0.099136
A   22
0.103720
A   23
0.109031
M  END
