
     RDKit          3D

 17 16  0  0  0  0  0  0  0  0999 V2000
   -1.1896   -1.0359   -0.4694 C   0  0  0  0  0  0  0  0  0  0  0  0
   -0.5367    0.1145    0.2350 C   0  0  0  0  0  0  0  0  0  0  0  0
   -1.2652    1.4160   -0.1277 C   0  0  0  0  0  0  0  0  0  0  0  0
    0.8907    0.3257   -0.1490 C   0  0  0  0  0  0  0  0  0  0  0  0
    1.7909   -0.8313    0.1269 C   0  0  0  0  0  0  0  0  0  0  0  0
    3.7618   -0.2533   -0.5183 I   0  0  0  0  0  0  0  0  0  0  0  0
   -2.2755   -1.0197   -0.1640 H   0  0  0  0  0  0  0  0  0  0  0  0
   -0.7892   -1.9884   -0.0810 H   0  0  0  0  0  0  0  0  0  0  0  0
   -1.1862   -0.9644   -1.5624 H   0  0  0  0  0  0  0  0  0  0  0  0
   -0.6593   -0.0155    1.3074 H   0  0  0  0  0  0  0  0  0  0  0  0
   -0.8437    1.8091   -1.0977 H   0  0  0  0  0  0  0  0  0  0  0  0
   -2.3441    1.2867   -0.1854 H   0  0  0  0  0  0  0  0  0  0  0  0
   -0.9358    2.1571    0.6410 H   0  0  0  0  0  0  0  0  0  0  0  0
    0.9854    0.6055   -1.2161 H   0  0  0  0  0  0  0  0  0  0  0  0
    1.2684    1.1973    0.4299 H   0  0  0  0  0  0  0  0  0  0  0  0
    1.8347   -1.1332    1.1750 H   0  0  0  0  0  0  0  0  0  0  0  0
    1.4935   -1.6702   -0.5477 H   0  0  0  0  0  0  0  0  0  0  0  0
  1  2  1  0
  2  3  1  0
  2  4  1  0
  4  5  1  0
  5  6  1  0
  1  7  1  0
  1  8  1  0
  1  9  1  0
  2 10  1  0
  3 11  1  0
  3 12  1  0
  3 13  1  0
  4 14  1  0
  4 15  1  0
  5 16  1  0
  5 17  1  0
A    1
-0.364162
A    2
0.133732
A    3
-0.361480
A    4
-0.156279
A    5
-0.119812
A    6
-0.187422
A    7
0.103284
A    8
0.101322
A    9
0.105545
A   10
0.040071
A   11
0.104969
A   12
0.101846
A   13
0.100591
A   14
0.082637
A   15
0.079233
A   16
0.118393
A   17
0.117532
M  END
