
     RDKit          3D

 32 31  0  0  0  0  0  0  0  0999 V2000
   -4.5454   -0.0446    0.2015 C   0  0  0  0  0  0  0  0  0  0  0  0
   -3.7779   -0.6895   -0.9430 C   0  0  0  0  0  0  0  0  0  0  0  0
   -2.2727   -0.6044   -0.6974 C   0  0  0  0  0  0  0  0  0  0  0  0
   -1.8468    0.8444   -0.5862 C   0  0  0  0  0  0  0  0  0  0  0  0
   -0.3682    0.9792   -0.3461 C   0  0  0  0  0  0  0  0  0  0  0  0
    0.0775    0.3032    0.9302 C   0  0  0  0  0  0  0  0  0  0  0  0
    1.5532    0.4433    1.1648 C   0  0  0  0  0  0  0  0  0  0  0  0
    2.3924   -0.1474    0.0809 C   0  0  0  0  0  0  0  0  0  0  0  0
    3.8550    0.0823    0.4783 C   0  0  0  0  0  0  0  0  0  0  0  0
    4.8063   -0.4687   -0.5348 C   0  0  0  0  0  0  0  0  0  0  0  0
    4.1123   -0.7756    2.4062 I   0  0  0  0  0  0  0  0  0  0  0  0
   -5.4709   -0.6085    0.4334 H   0  0  0  0  0  0  0  0  0  0  0  0
   -3.9092   -0.0335    1.1330 H   0  0  0  0  0  0  0  0  0  0  0  0
   -4.8137    0.9818   -0.0998 H   0  0  0  0  0  0  0  0  0  0  0  0
   -4.0365   -1.7693   -0.9289 H   0  0  0  0  0  0  0  0  0  0  0  0
   -4.0527   -0.2516   -1.9200 H   0  0  0  0  0  0  0  0  0  0  0  0
   -2.0828   -1.1976    0.1964 H   0  0  0  0  0  0  0  0  0  0  0  0
   -1.7737   -1.0823   -1.5498 H   0  0  0  0  0  0  0  0  0  0  0  0
   -2.4121    1.3619    0.2170 H   0  0  0  0  0  0  0  0  0  0  0  0
   -2.0726    1.3390   -1.5499 H   0  0  0  0  0  0  0  0  0  0  0  0
    0.1553    0.4578   -1.1871 H   0  0  0  0  0  0  0  0  0  0  0  0
   -0.1327    2.0571   -0.3325 H   0  0  0  0  0  0  0  0  0  0  0  0
   -0.4377    0.8217    1.7656 H   0  0  0  0  0  0  0  0  0  0  0  0
   -0.2498   -0.7511    0.9434 H   0  0  0  0  0  0  0  0  0  0  0  0
    1.7787    1.5264    1.2226 H   0  0  0  0  0  0  0  0  0  0  0  0
    1.7943   -0.0692    2.1090 H   0  0  0  0  0  0  0  0  0  0  0  0
    2.2755   -1.2597    0.0196 H   0  0  0  0  0  0  0  0  0  0  0  0
    2.2282    0.3045   -0.9105 H   0  0  0  0  0  0  0  0  0  0  0  0
    3.9602    1.1811    0.5855 H   0  0  0  0  0  0  0  0  0  0  0  0
    5.7700   -0.6886    0.0114 H   0  0  0  0  0  0  0  0  0  0  0  0
    5.0538    0.3275   -1.2680 H   0  0  0  0  0  0  0  0  0  0  0  0
    4.4427   -1.3815   -1.0449 H   0  0  0  0  0  0  0  0  0  0  0  0
  1  2  1  0
  2  3  1  0
  3  4  1  0
  4  5  1  0
  5  6  1  0
  6  7  1  0
  7  8  1  0
  8  9  1  0
  9 10  1  0
  9 11  1  0
  1 12  1  0
  1 13  1  0
  1 14  1  0
  2 15  1  0
  2 16  1  0
  3 17  1  0
  3 18  1  0
  4 19  1  0
  4 20  1  0
  5 21  1  0
  5 22  1  0
  6 23  1  0
  6 24  1  0
  7 25  1  0
  7 26  1  0
  8 27  1  0
  8 28  1  0
  9 29  1  0
 10 30  1  0
 10 31  1  0
 10 32  1  0
A    1
-0.324198
A    2
-0.073946
A    3
-0.124883
A    4
-0.124159
A    5
-0.125092
A    6
-0.118844
A    7
-0.127921
A    8
-0.160308
A    9
0.114908
A   10
-0.365741
A   11
-0.220047
A   12
0.095257
A   13
0.096439
A   14
0.094313
A   15
0.055970
A   16
0.059362
A   17
0.063671
A   18
0.059907
A   19
0.064444
A   20
0.060321
A   21
0.062114
A   22
0.063057
A   23
0.066433
A   24
0.067553
A   25
0.068453
A   26
0.062317
A   27
0.085091
A   28
0.086176
A   29
0.086617
A   30
0.114453
A   31
0.119786
A   32
0.118499
M  END
