
     RDKit          3D

 20 19  0  0  0  0  0  0  0  0999 V2000
   -3.0615    0.0009   -0.0320 C   0  0  0  0  0  0  0  0  0  0  0  0
   -1.8349   -0.4438    0.7379 C   0  0  0  0  0  0  0  0  0  0  0  0
   -0.6376    0.1230    0.0362 C   0  0  0  0  0  0  0  0  0  0  0  0
    0.6744   -0.2406    0.6971 C   0  0  0  0  0  0  0  0  0  0  0  0
    1.7537    0.4285   -0.1652 C   0  0  0  0  0  0  0  0  0  0  0  0
    3.1252    0.1711    0.3475 C   0  0  0  0  0  0  0  0  0  0  0  0
    1.5654   -0.4076   -2.1226 I   0  0  0  0  0  0  0  0  0  0  0  0
   -3.9096    0.2634    0.6267 H   0  0  0  0  0  0  0  0  0  0  0  0
   -2.8309    0.9456   -0.6077 H   0  0  0  0  0  0  0  0  0  0  0  0
   -3.3426   -0.7415   -0.8164 H   0  0  0  0  0  0  0  0  0  0  0  0
   -1.7920   -1.5659    0.6245 H   0  0  0  0  0  0  0  0  0  0  0  0
   -1.9468   -0.1293    1.7716 H   0  0  0  0  0  0  0  0  0  0  0  0
   -0.7178    1.2456    0.1126 H   0  0  0  0  0  0  0  0  0  0  0  0
   -0.5890   -0.2194   -1.0009 H   0  0  0  0  0  0  0  0  0  0  0  0
    0.7369    0.0782    1.7411 H   0  0  0  0  0  0  0  0  0  0  0  0
    0.8196   -1.3535    0.6173 H   0  0  0  0  0  0  0  0  0  0  0  0
    1.4765    1.5101   -0.2056 H   0  0  0  0  0  0  0  0  0  0  0  0
    3.5392   -0.7207   -0.1893 H   0  0  0  0  0  0  0  0  0  0  0  0
    3.7761    1.0261    0.0043 H   0  0  0  0  0  0  0  0  0  0  0  0
    3.1955    0.0299    1.4375 H   0  0  0  0  0  0  0  0  0  0  0  0
  1  2  1  0
  2  3  1  0
  3  4  1  0
  4  5  1  0
  5  6  1  0
  5  7  1  0
  1  8  1  0
  1  9  1  0
  1 10  1  0
  2 11  1  0
  2 12  1  0
  3 13  1  0
  3 14  1  0
  4 15  1  0
  4 16  1  0
  5 17  1  0
  6 18  1  0
  6 19  1  0
  6 20  1  0
A    1
-0.323641
A    2
-0.072239
A    3
-0.129405
A    4
-0.164796
A    5
0.116187
A    6
-0.367542
A    7
-0.218482
A    8
0.093157
A    9
0.097183
A   10
0.098362
A   11
0.064366
A   12
0.061152
A   13
0.069903
A   14
0.063480
A   15
0.087876
A   16
0.084168
A   17
0.086814
A   18
0.118919
A   19
0.114488
A   20
0.120052
M  END
