
     RDKit          3D

 17 16  0  0  0  0  0  0  0  0999 V2000
   -2.5546    0.0175    0.2458 C   0  0  0  0  0  0  0  0  0  0  0  0
   -1.1529   -0.3566    0.6690 C   0  0  0  0  0  0  0  0  0  0  0  0
   -0.1164    0.2553   -0.2839 C   0  0  0  0  0  0  0  0  0  0  0  0
    1.2176   -0.1687    0.2156 C   0  0  0  0  0  0  0  0  0  0  0  0
    2.3771    0.3377   -0.5967 C   0  0  0  0  0  0  0  0  0  0  0  0
    4.1320   -0.4476    0.3838 I   0  0  0  0  0  0  0  0  0  0  0  0
   -2.9846    0.8324    0.8679 H   0  0  0  0  0  0  0  0  0  0  0  0
   -2.6002    0.2787   -0.8430 H   0  0  0  0  0  0  0  0  0  0  0  0
   -3.2095   -0.8744    0.4188 H   0  0  0  0  0  0  0  0  0  0  0  0
   -1.0034    0.0638    1.6850 H   0  0  0  0  0  0  0  0  0  0  0  0
   -0.9967   -1.4433    0.7333 H   0  0  0  0  0  0  0  0  0  0  0  0
   -0.2845   -0.2328   -1.2783 H   0  0  0  0  0  0  0  0  0  0  0  0
   -0.2593    1.3254   -0.4053 H   0  0  0  0  0  0  0  0  0  0  0  0
    1.3544    0.2070    1.2542 H   0  0  0  0  0  0  0  0  0  0  0  0
    1.2433   -1.2739    0.2674 H   0  0  0  0  0  0  0  0  0  0  0  0
    2.4744    1.4400   -0.5302 H   0  0  0  0  0  0  0  0  0  0  0  0
    2.3633    0.0394   -1.6452 H   0  0  0  0  0  0  0  0  0  0  0  0
  1  2  1  0
  2  3  1  0
  3  4  1  0
  4  5  1  0
  5  6  1  0
  1  7  1  0
  1  8  1  0
  1  9  1  0
  2 10  1  0
  2 11  1  0
  3 12  1  0
  3 13  1  0
  4 14  1  0
  4 15  1  0
  5 16  1  0
  5 17  1  0
A    1
-0.329585
A    2
-0.070873
A    3
-0.122017
A    4
-0.121538
A    5
-0.119271
A    6
-0.192826
A    7
0.097838
A    8
0.097338
A    9
0.097021
A   10
0.064290
A   11
0.064197
A   12
0.069419
A   13
0.071195
A   14
0.079326
A   15
0.078273
A   16
0.118195
A   17
0.119017
M  END
