
     RDKit          3D

 17 16  0  0  0  0  0  0  0  0999 V2000
   -2.2774   -0.3810   -0.4210 C   0  0  0  0  0  0  0  0  0  0  0  0
   -0.8878    0.1836   -0.4825 C   0  0  0  0  0  0  0  0  0  0  0  0
   -0.1075   -0.1186    0.7969 C   0  0  0  0  0  0  0  0  0  0  0  0
    0.0864   -2.1854    1.1542 I   0  0  0  0  0  0  0  0  0  0  0  0
    1.2441    0.5957    0.7511 C   0  0  0  0  0  0  0  0  0  0  0  0
    2.0467    0.1115   -0.4549 C   0  0  0  0  0  0  0  0  0  0  0  0
   -3.0361    0.4544   -0.3916 H   0  0  0  0  0  0  0  0  0  0  0  0
   -2.5430   -0.9671   -1.3256 H   0  0  0  0  0  0  0  0  0  0  0  0
   -2.4255   -1.0477    0.4690 H   0  0  0  0  0  0  0  0  0  0  0  0
   -0.8752    1.2648   -0.6487 H   0  0  0  0  0  0  0  0  0  0  0  0
   -0.3308   -0.3566   -1.2969 H   0  0  0  0  0  0  0  0  0  0  0  0
   -0.6620    0.3639    1.6407 H   0  0  0  0  0  0  0  0  0  0  0  0
    1.8518    0.3307    1.6391 H   0  0  0  0  0  0  0  0  0  0  0  0
    1.0636    1.6759    0.6770 H   0  0  0  0  0  0  0  0  0  0  0  0
    3.0312    0.6381   -0.3821 H   0  0  0  0  0  0  0  0  0  0  0  0
    2.2574   -0.9618   -0.3387 H   0  0  0  0  0  0  0  0  0  0  0  0
    1.5642    0.3996   -1.3859 H   0  0  0  0  0  0  0  0  0  0  0  0
  1  2  1  0
  2  3  1  0
  3  4  1  0
  3  5  1  0
  5  6  1  0
  1  7  1  0
  1  8  1  0
  1  9  1  0
  2 10  1  0
  2 11  1  0
  3 12  1  0
  5 13  1  0
  5 14  1  0
  6 15  1  0
  6 16  1  0
  6 17  1  0
A    1
-0.325365
A    2
-0.105108
A    3
0.056919
A    4
-0.212817
A    5
-0.109749
A    6
-0.321748
A    7
0.102382
A    8
0.104804
A    9
0.096697
A   10
0.086022
A   11
0.080140
A   12
0.086647
A   13
0.075147
A   14
0.082542
A   15
0.106215
A   16
0.096434
A   17
0.100838
M  END
