
     RDKit          3D

 17 16  0  0  0  0  0  0  0  0999 V2000
   -0.7597    1.2981   -0.4480 C   0  0  0  0  0  0  0  0  0  0  0  0
   -0.0212    0.0180   -0.0602 C   0  0  0  0  0  0  0  0  0  0  0  0
   -0.7986   -0.6117    1.0779 C   0  0  0  0  0  0  0  0  0  0  0  0
    0.0585   -0.9647   -1.1710 C   0  0  0  0  0  0  0  0  0  0  0  0
    1.3243    0.4711    0.4578 C   0  0  0  0  0  0  0  0  0  0  0  0
    2.5561   -1.1366    1.0687 I   0  0  0  0  0  0  0  0  0  0  0  0
   -1.7571    1.0916   -0.8663 H   0  0  0  0  0  0  0  0  0  0  0  0
   -0.1038    1.8879   -1.1165 H   0  0  0  0  0  0  0  0  0  0  0  0
   -0.8637    1.8838    0.4892 H   0  0  0  0  0  0  0  0  0  0  0  0
   -1.6891   -1.0934    0.6689 H   0  0  0  0  0  0  0  0  0  0  0  0
   -0.1522   -1.4147    1.4905 H   0  0  0  0  0  0  0  0  0  0  0  0
   -1.0202    0.1554    1.8447 H   0  0  0  0  0  0  0  0  0  0  0  0
    1.0978   -1.3040   -1.4006 H   0  0  0  0  0  0  0  0  0  0  0  0
   -0.4200   -0.5695   -2.0965 H   0  0  0  0  0  0  0  0  0  0  0  0
   -0.5036   -1.9169   -0.9406 H   0  0  0  0  0  0  0  0  0  0  0  0
    1.1584    1.1646    1.3079 H   0  0  0  0  0  0  0  0  0  0  0  0
    1.8940    1.0410   -0.3059 H   0  0  0  0  0  0  0  0  0  0  0  0
  1  2  1  0
  2  3  1  0
  2  4  1  0
  2  5  1  0
  5  6  1  0
  1  7  1  0
  1  8  1  0
  1  9  1  0
  3 10  1  0
  3 11  1  0
  3 12  1  0
  4 13  1  0
  4 14  1  0
  4 15  1  0
  5 16  1  0
  5 17  1  0
A    1
-0.379736
A    2
0.280516
A    3
-0.389505
A    4
-0.384769
A    5
-0.187690
A    6
-0.168576
A    7
0.115030
A    8
0.109135
A    9
0.108751
A   10
0.113423
A   11
0.104348
A   12
0.110523
A   13
0.109125
A   14
0.111800
A   15
0.103133
A   16
0.122220
A   17
0.122270
M  END
