
     RDKit          3D

 14 13  0  0  0  0  0  0  0  0999 V2000
   -1.1057   -0.6810    0.5497 C   0  0  0  0  0  0  0  0  0  0  0  0
   -0.2328    0.0460   -0.4284 C   0  0  0  0  0  0  0  0  0  0  0  0
    1.0258   -0.7270   -0.7230 C   0  0  0  0  0  0  0  0  0  0  0  0
    2.1957   -1.0648    1.0141 I   0  0  0  0  0  0  0  0  0  0  0  0
    0.0522    1.4665    0.0042 C   0  0  0  0  0  0  0  0  0  0  0  0
    1.0410    1.5543    1.8740 I   0  0  0  0  0  0  0  0  0  0  0  0
   -1.9669   -1.2020    0.0363 H   0  0  0  0  0  0  0  0  0  0  0  0
   -1.5850    0.0076    1.2793 H   0  0  0  0  0  0  0  0  0  0  0  0
   -0.5751   -1.4842    1.0984 H   0  0  0  0  0  0  0  0  0  0  0  0
   -0.7931    0.1159   -1.3848 H   0  0  0  0  0  0  0  0  0  0  0  0
    1.6017   -0.2543   -1.5196 H   0  0  0  0  0  0  0  0  0  0  0  0
    0.7046   -1.7253   -1.0930 H   0  0  0  0  0  0  0  0  0  0  0  0
    0.5929    1.9848   -0.8003 H   0  0  0  0  0  0  0  0  0  0  0  0
   -0.9554    1.9636    0.0929 H   0  0  0  0  0  0  0  0  0  0  0  0
  1  2  1  0
  2  3  1  0
  3  4  1  0
  2  5  1  0
  5  6  1  0
  1  7  1  0
  1  8  1  0
  1  9  1  0
  2 10  1  0
  3 11  1  0
  3 12  1  0
  5 13  1  0
  5 14  1  0
A    1
-0.368820
A    2
0.120170
A    3
-0.171446
A    4
-0.159198
A    5
-0.172102
A    6
-0.161880
A    7
0.114493
A    8
0.114623
A    9
0.102519
A   10
0.081109
A   11
0.123217
A   12
0.126015
A   13
0.125827
A   14
0.125471
M  END
