
     RDKit          3D

 32 31  0  0  0  0  0  0  0  0999 V2000
    3.2997   -1.1344   -0.6757 C   0  0  0  0  0  0  0  0  0  0  0  0
    2.9352   -0.7455    0.7494 C   0  0  0  0  0  0  0  0  0  0  0  0
    2.8984    0.7570    0.8202 C   0  0  0  0  0  0  0  0  0  0  0  0
    1.9016    1.2909   -0.1382 C   0  0  0  0  0  0  0  0  0  0  0  0
    0.5038    0.7475    0.2101 C   0  0  0  0  0  0  0  0  0  0  0  0
   -0.4283    1.3538   -0.7922 C   0  0  0  0  0  0  0  0  0  0  0  0
   -1.8596    0.8870   -0.4859 C   0  0  0  0  0  0  0  0  0  0  0  0
   -1.8842   -0.5991   -0.5962 C   0  0  0  0  0  0  0  0  0  0  0  0
   -3.2388   -1.1741   -0.4639 C   0  0  0  0  0  0  0  0  0  0  0  0
   -3.9398   -0.8719    0.7992 C   0  0  0  0  0  0  0  0  0  0  0  0
   -4.4520    1.1569    1.1198 I   0  0  0  0  0  0  0  0  0  0  0  0
    2.3958   -1.5310   -1.1946 H   0  0  0  0  0  0  0  0  0  0  0  0
    3.6980   -0.3084   -1.2586 H   0  0  0  0  0  0  0  0  0  0  0  0
    4.0252   -1.9894   -0.6360 H   0  0  0  0  0  0  0  0  0  0  0  0
    2.0066   -1.2009    1.1020 H   0  0  0  0  0  0  0  0  0  0  0  0
    3.7537   -1.0670    1.4454 H   0  0  0  0  0  0  0  0  0  0  0  0
    3.9189    1.0993    0.4841 H   0  0  0  0  0  0  0  0  0  0  0  0
    2.7057    1.1290    1.8488 H   0  0  0  0  0  0  0  0  0  0  0  0
    1.8004    2.3976   -0.0424 H   0  0  0  0  0  0  0  0  0  0  0  0
    2.1117    0.9830   -1.1743 H   0  0  0  0  0  0  0  0  0  0  0  0
    0.3226    1.0352    1.2550 H   0  0  0  0  0  0  0  0  0  0  0  0
    0.5165   -0.3638    0.1184 H   0  0  0  0  0  0  0  0  0  0  0  0
   -0.4364    2.4405   -0.7859 H   0  0  0  0  0  0  0  0  0  0  0  0
   -0.1423    0.9525   -1.7983 H   0  0  0  0  0  0  0  0  0  0  0  0
   -2.6192    1.4152   -1.0521 H   0  0  0  0  0  0  0  0  0  0  0  0
   -1.9423    1.0858    0.6409 H   0  0  0  0  0  0  0  0  0  0  0  0
   -1.2644   -1.0695    0.2359 H   0  0  0  0  0  0  0  0  0  0  0  0
   -1.3446   -0.9507   -1.5152 H   0  0  0  0  0  0  0  0  0  0  0  0
   -3.8317   -0.7592   -1.3482 H   0  0  0  0  0  0  0  0  0  0  0  0
   -3.2088   -2.2830   -0.6733 H   0  0  0  0  0  0  0  0  0  0  0  0
   -4.8694   -1.5024    0.8343 H   0  0  0  0  0  0  0  0  0  0  0  0
   -3.3324   -1.1810    1.7113 H   0  0  0  0  0  0  0  0  0  0  0  0
  1  2  1  0
  2  3  1  0
  3  4  1  0
  4  5  1  0
  5  6  1  0
  6  7  1  0
  7  8  1  0
  8  9  1  0
  9 10  1  0
 10 11  1  0
  1 12  1  0
  1 13  1  0
  1 14  1  0
  2 15  1  0
  2 16  1  0
  3 17  1  0
  3 18  1  0
  4 19  1  0
  4 20  1  0
  5 21  1  0
  5 22  1  0
  6 23  1  0
  6 24  1  0
  7 25  1  0
  7 26  1  0
  8 27  1  0
  8 28  1  0
  9 29  1  0
  9 30  1  0
 10 31  1  0
 10 32  1  0
A    1
-0.324755
A    2
-0.072742
A    3
-0.125958
A    4
-0.125356
A    5
-0.123581
A    6
-0.125765
A    7
-0.127640
A    8
-0.121597
A    9
-0.106678
A   10
-0.114436
A   11
-0.184367
A   12
0.094927
A   13
0.095805
A   14
0.094690
A   15
0.059702
A   16
0.056568
A   17
0.060616
A   18
0.059547
A   19
0.062575
A   20
0.064593
A   21
0.066845
A   22
0.061569
A   23
0.064169
A   24
0.063111
A   25
0.062318
A   26
0.062431
A   27
0.066379
A   28
0.068739
A   29
0.078471
A   30
0.075835
A   31
0.115149
A   32
0.118838
M  END
