
     RDKit          3D

 14 13  0  0  0  0  0  0  0  0999 V2000
    0.1240    1.4861   -0.0478 C   0  0  0  0  0  0  0  0  0  0  0  0
    0.1553    0.0265    0.3129 C   0  0  0  0  0  0  0  0  0  0  0  0
   -1.2003   -0.5538    0.5274 C   0  0  0  0  0  0  0  0  0  0  0  0
    0.9598   -0.7169   -0.7294 C   0  0  0  0  0  0  0  0  0  0  0  0
    1.0532   -2.8002   -0.2904 I   0  0  0  0  0  0  0  0  0  0  0  0
    0.6009    1.6626   -1.0450 H   0  0  0  0  0  0  0  0  0  0  0  0
   -0.9002    1.9087   -0.0397 H   0  0  0  0  0  0  0  0  0  0  0  0
    0.7096    2.1065    0.6770 H   0  0  0  0  0  0  0  0  0  0  0  0
    0.7288   -0.0766    1.2777 H   0  0  0  0  0  0  0  0  0  0  0  0
   -1.8628    0.2093    0.9998 H   0  0  0  0  0  0  0  0  0  0  0  0
   -1.1924   -1.4250    1.2189 H   0  0  0  0  0  0  0  0  0  0  0  0
   -1.7095   -0.8785   -0.3992 H   0  0  0  0  0  0  0  0  0  0  0  0
    0.5314   -0.6111   -1.7436 H   0  0  0  0  0  0  0  0  0  0  0  0
    2.0022   -0.3376   -0.7186 H   0  0  0  0  0  0  0  0  0  0  0  0
  1  2  1  0
  2  3  1  0
  2  4  1  0
  4  5  1  0
  1  6  1  0
  1  7  1  0
  1  8  1  0
  2  9  1  0
  3 10  1  0
  3 11  1  0
  3 12  1  0
  4 13  1  0
  4 14  1  0
A    1
-0.358700
A    2
0.138891
A    3
-0.364577
A    4
-0.158722
A    5
-0.182966
A    6
0.107103
A    7
0.110950
A    8
0.103177
A    9
0.050559
A   10
0.107843
A   11
0.098791
A   12
0.107054
A   13
0.121548
A   14
0.119050
M  END
