
     RDKit          3D

 17 16  0  0  0  0  0  0  0  0999 V2000
    1.7524   -0.4391   -0.3057 C   0  0  0  0  0  0  0  0  0  0  0  0
    0.7879   -0.3337    0.8125 C   0  0  0  0  0  0  0  0  0  0  0  0
   -0.5874    0.1163    0.4262 C   0  0  0  0  0  0  0  0  0  0  0  0
   -1.2253   -0.8344   -0.5663 C   0  0  0  0  0  0  0  0  0  0  0  0
   -0.6290    1.4846   -0.1810 C   0  0  0  0  0  0  0  0  0  0  0  0
   -1.8391    0.1371    2.1597 I   0  0  0  0  0  0  0  0  0  0  0  0
    2.1481   -1.4740   -0.3792 H   0  0  0  0  0  0  0  0  0  0  0  0
    2.6536    0.2018   -0.1071 H   0  0  0  0  0  0  0  0  0  0  0  0
    1.3387   -0.1948   -1.3003 H   0  0  0  0  0  0  0  0  0  0  0  0
    0.6706   -1.3284    1.3167 H   0  0  0  0  0  0  0  0  0  0  0  0
    1.1845    0.3436    1.5969 H   0  0  0  0  0  0  0  0  0  0  0  0
   -1.1047   -0.4843   -1.6184 H   0  0  0  0  0  0  0  0  0  0  0  0
   -2.3080   -0.9586   -0.4051 H   0  0  0  0  0  0  0  0  0  0  0  0
   -0.7013   -1.8016   -0.4706 H   0  0  0  0  0  0  0  0  0  0  0  0
   -1.7031    1.8311   -0.1049 H   0  0  0  0  0  0  0  0  0  0  0  0
   -0.3888    1.4919   -1.2648 H   0  0  0  0  0  0  0  0  0  0  0  0
   -0.0490    2.2423    0.3915 H   0  0  0  0  0  0  0  0  0  0  0  0
  1  2  1  0
  2  3  1  0
  3  4  1  0
  3  5  1  0
  3  6  1  0
  1  7  1  0
  1  8  1  0
  1  9  1  0
  2 10  1  0
  2 11  1  0
  4 12  1  0
  4 13  1  0
  4 14  1  0
  5 15  1  0
  5 16  1  0
  5 17  1  0
A    1
-0.314479
A    2
-0.145999
A    3
0.285692
A    4
-0.395725
A    5
-0.398067
A    6
-0.259171
A    7
0.102149
A    8
0.110419
A    9
0.102051
A   10
0.083229
A   11
0.083647
A   12
0.124403
A   13
0.124995
A   14
0.122730
A   15
0.125728
A   16
0.125030
A   17
0.123364
M  END
