
     RDKit          3D

 26 25  0  0  0  0  0  0  0  0999 V2000
   -3.5477   -0.5931   -0.7385 C   0  0  0  0  0  0  0  0  0  0  0  0
   -2.8270    0.7203   -0.7827 C   0  0  0  0  0  0  0  0  0  0  0  0
   -1.5498    0.7098    0.0242 C   0  0  0  0  0  0  0  0  0  0  0  0
   -0.5828   -0.3310   -0.4782 C   0  0  0  0  0  0  0  0  0  0  0  0
    0.6845   -0.3407    0.3296 C   0  0  0  0  0  0  0  0  0  0  0  0
    1.3952    0.9630    0.2865 C   0  0  0  0  0  0  0  0  0  0  0  0
    2.6651    1.0045    1.0718 C   0  0  0  0  0  0  0  0  0  0  0  0
    3.7034    0.0240    0.6452 C   0  0  0  0  0  0  0  0  0  0  0  0
    4.2269    0.4002   -1.4020 I   0  0  0  0  0  0  0  0  0  0  0  0
   -3.4510   -1.1093    0.2316 H   0  0  0  0  0  0  0  0  0  0  0  0
   -3.2820   -1.2706   -1.5761 H   0  0  0  0  0  0  0  0  0  0  0  0
   -4.6468   -0.3744   -0.8695 H   0  0  0  0  0  0  0  0  0  0  0  0
   -2.5841    0.9516   -1.8344 H   0  0  0  0  0  0  0  0  0  0  0  0
   -3.4826    1.4917   -0.3563 H   0  0  0  0  0  0  0  0  0  0  0  0
   -1.7412    0.5292    1.0883 H   0  0  0  0  0  0  0  0  0  0  0  0
   -1.0804    1.7160   -0.1688 H   0  0  0  0  0  0  0  0  0  0  0  0
   -0.3833   -0.1842   -1.5710 H   0  0  0  0  0  0  0  0  0  0  0  0
   -1.0939   -1.3183   -0.4122 H   0  0  0  0  0  0  0  0  0  0  0  0
    1.2832   -1.1950   -0.0268 H   0  0  0  0  0  0  0  0  0  0  0  0
    0.3741   -0.5192    1.3941 H   0  0  0  0  0  0  0  0  0  0  0  0
    1.5640    1.2743   -0.7634 H   0  0  0  0  0  0  0  0  0  0  0  0
    0.7200    1.7323    0.7648 H   0  0  0  0  0  0  0  0  0  0  0  0
    2.4679    0.8604    2.1495 H   0  0  0  0  0  0  0  0  0  0  0  0
    3.1003    2.0253    0.9533 H   0  0  0  0  0  0  0  0  0  0  0  0
    4.6212    0.2355    1.2344 H   0  0  0  0  0  0  0  0  0  0  0  0
    3.4468   -1.0270    0.8065 H   0  0  0  0  0  0  0  0  0  0  0  0
  1  2  1  0
  2  3  1  0
  3  4  1  0
  4  5  1  0
  5  6  1  0
  6  7  1  0
  7  8  1  0
  8  9  1  0
  1 10  1  0
  1 11  1  0
  1 12  1  0
  2 13  1  0
  2 14  1  0
  3 15  1  0
  3 16  1  0
  4 17  1  0
  4 18  1  0
  5 19  1  0
  5 20  1  0
  6 21  1  0
  6 22  1  0
  7 23  1  0
  7 24  1  0
  8 25  1  0
  8 26  1  0
A    1
-0.326441
A    2
-0.073214
A    3
-0.125953
A    4
-0.122452
A    5
-0.126492
A    6
-0.124952
A    7
-0.113887
A    8
-0.120238
A    9
-0.181265
A   10
0.096381
A   11
0.094547
A   12
0.095500
A   13
0.061035
A   14
0.056064
A   15
0.064636
A   16
0.059712
A   17
0.067590
A   18
0.062394
A   19
0.064182
A   20
0.065229
A   21
0.063382
A   22
0.070183
A   23
0.085700
A   24
0.075420
A   25
0.117758
A   26
0.115180
M  END
