
     RDKit          3D

 20 19  0  0  0  0  0  0  0  0999 V2000
   -1.7070   -0.6291    0.4674 C   0  0  0  0  0  0  0  0  0  0  0  0
   -0.4126    0.0543    0.0001 C   0  0  0  0  0  0  0  0  0  0  0  0
   -0.3632    1.4043    0.6246 C   0  0  0  0  0  0  0  0  0  0  0  0
   -0.4618    0.2404   -1.5153 C   0  0  0  0  0  0  0  0  0  0  0  0
    0.6823   -0.8863    0.3117 C   0  0  0  0  0  0  0  0  0  0  0  0
    2.0678   -0.5111   -0.0341 C   0  0  0  0  0  0  0  0  0  0  0  0
    2.6734    1.2548    0.9793 I   0  0  0  0  0  0  0  0  0  0  0  0
   -2.5679   -0.3331   -0.1388 H   0  0  0  0  0  0  0  0  0  0  0  0
   -1.5977   -1.7380    0.4375 H   0  0  0  0  0  0  0  0  0  0  0  0
   -1.8764   -0.3651    1.5296 H   0  0  0  0  0  0  0  0  0  0  0  0
   -1.4104    1.8358    0.7415 H   0  0  0  0  0  0  0  0  0  0  0  0
   -0.0031    1.3664    1.6834 H   0  0  0  0  0  0  0  0  0  0  0  0
    0.2108    2.1639    0.0903 H   0  0  0  0  0  0  0  0  0  0  0  0
    0.4907    0.7047   -1.8119 H   0  0  0  0  0  0  0  0  0  0  0  0
   -1.2632    0.9677   -1.7967 H   0  0  0  0  0  0  0  0  0  0  0  0
   -0.5638   -0.7093   -2.0496 H   0  0  0  0  0  0  0  0  0  0  0  0
    0.4143   -1.8716   -0.1693 H   0  0  0  0  0  0  0  0  0  0  0  0
    0.6786   -1.1529    1.4144 H   0  0  0  0  0  0  0  0  0  0  0  0
    2.7378   -1.3333    0.3608 H   0  0  0  0  0  0  0  0  0  0  0  0
    2.2714   -0.4625   -1.1248 H   0  0  0  0  0  0  0  0  0  0  0  0
  1  2  1  0
  2  3  1  0
  2  4  1  0
  2  5  1  0
  5  6  1  0
  6  7  1  0
  1  8  1  0
  1  9  1  0
  1 10  1  0
  3 11  1  0
  3 12  1  0
  3 13  1  0
  4 14  1  0
  4 15  1  0
  4 16  1  0
  5 17  1  0
  5 18  1  0
  6 19  1  0
  6 20  1  0
A    1
-0.385001
A    2
0.264871
A    3
-0.386005
A    4
-0.382809
A    5
-0.170548
A    6
-0.109099
A    7
-0.181155
A    8
0.106245
A    9
0.103622
A   10
0.107098
A   11
0.108871
A   12
0.103063
A   13
0.103283
A   14
0.103809
A   15
0.109298
A   16
0.104446
A   17
0.084157
A   18
0.084193
A   19
0.117526
A   20
0.114134
M  END
