
     RDKit          3D

 26 25  0  0  0  0  0  0  0  0999 V2000
   -3.5529   -0.5065   -0.7790 C   0  0  0  0  0  0  0  0  0  0  0  0
   -2.8001    0.7822   -0.7733 C   0  0  0  0  0  0  0  0  0  0  0  0
   -1.5078    0.7060    0.0348 C   0  0  0  0  0  0  0  0  0  0  0  0
   -0.5788   -0.3334   -0.5126 C   0  0  0  0  0  0  0  0  0  0  0  0
    0.6759   -0.3968    0.3143 C   0  0  0  0  0  0  0  0  0  0  0  0
    1.3578    0.9180    0.2877 C   0  0  0  0  0  0  0  0  0  0  0  0
    2.6413    0.9672    1.0719 C   0  0  0  0  0  0  0  0  0  0  0  0
    3.6745   -0.0095    0.5862 C   0  0  0  0  0  0  0  0  0  0  0  0
    4.1187    0.3603   -1.2615 Br  0  0  0  0  0  0  0  0  0  0  0  0
   -4.6551   -0.2787   -0.7879 H   0  0  0  0  0  0  0  0  0  0  0  0
   -3.2784   -1.1642   -1.6108 H   0  0  0  0  0  0  0  0  0  0  0  0
   -3.4004   -1.0958    0.1690 H   0  0  0  0  0  0  0  0  0  0  0  0
   -2.5319    1.0622   -1.8073 H   0  0  0  0  0  0  0  0  0  0  0  0
   -3.4201    1.5769   -0.2671 H   0  0  0  0  0  0  0  0  0  0  0  0
   -1.6788    0.5053    1.0963 H   0  0  0  0  0  0  0  0  0  0  0  0
   -1.0400    1.7184   -0.1556 H   0  0  0  0  0  0  0  0  0  0  0  0
   -0.3439   -0.0998   -1.5890 H   0  0  0  0  0  0  0  0  0  0  0  0
   -1.0845   -1.3369   -0.5678 H   0  0  0  0  0  0  0  0  0  0  0  0
    1.3207   -1.2539    0.0365 H   0  0  0  0  0  0  0  0  0  0  0  0
    0.3307   -0.5986    1.3717 H   0  0  0  0  0  0  0  0  0  0  0  0
    1.5239    1.3024   -0.7311 H   0  0  0  0  0  0  0  0  0  0  0  0
    0.6867    1.6517    0.8316 H   0  0  0  0  0  0  0  0  0  0  0  0
    2.4668    0.7801    2.1392 H   0  0  0  0  0  0  0  0  0  0  0  0
    3.0654    1.9875    0.9714 H   0  0  0  0  0  0  0  0  0  0  0  0
    4.5990    0.1889    1.1758 H   0  0  0  0  0  0  0  0  0  0  0  0
    3.4112   -1.0575    0.7567 H   0  0  0  0  0  0  0  0  0  0  0  0
  1  2  1  0
  2  3  1  0
  3  4  1  0
  4  5  1  0
  5  6  1  0
  6  7  1  0
  7  8  1  0
  8  9  1  0
  1 10  1  0
  1 11  1  0
  1 12  1  0
  2 13  1  0
  2 14  1  0
  3 15  1  0
  3 16  1  0
  4 17  1  0
  4 18  1  0
  5 19  1  0
  5 20  1  0
  6 21  1  0
  6 22  1  0
  7 23  1  0
  7 24  1  0
  8 25  1  0
  8 26  1  0
A    1
-0.325377
A    2
-0.072114
A    3
-0.127113
A    4
-0.119471
A    5
-0.125393
A    6
-0.127164
A    7
-0.124105
A    8
-0.064205
A    9
-0.216556
A   10
0.095444
A   11
0.094555
A   12
0.095469
A   13
0.059584
A   14
0.055742
A   15
0.064808
A   16
0.060517
A   17
0.066435
A   18
0.061233
A   19
0.063571
A   20
0.064224
A   21
0.064492
A   22
0.070551
A   23
0.085465
A   24
0.077959
A   25
0.110811
A   26
0.110638
M  END
