
     RDKit          3D

 14 13  0  0  0  0  0  0  0  0999 V2000
   -1.1940   -0.6014    0.4726 C   0  0  0  0  0  0  0  0  0  0  0  0
   -0.1795    0.0736   -0.4086 C   0  0  0  0  0  0  0  0  0  0  0  0
    1.0254   -0.7969   -0.6369 C   0  0  0  0  0  0  0  0  0  0  0  0
    1.9410   -1.2599    0.9843 Br  0  0  0  0  0  0  0  0  0  0  0  0
    0.1769    1.4504    0.0913 C   0  0  0  0  0  0  0  0  0  0  0  0
    0.9248    1.4059    1.8663 Br  0  0  0  0  0  0  0  0  0  0  0  0
   -2.0361   -1.0379   -0.1161 H   0  0  0  0  0  0  0  0  0  0  0  0
   -1.6577    0.1200    1.1716 H   0  0  0  0  0  0  0  0  0  0  0  0
   -0.7541   -1.4700    1.0288 H   0  0  0  0  0  0  0  0  0  0  0  0
   -0.6502    0.2073   -1.4065 H   0  0  0  0  0  0  0  0  0  0  0  0
    1.6774   -0.3126   -1.3820 H   0  0  0  0  0  0  0  0  0  0  0  0
    0.6569   -1.7450   -1.0861 H   0  0  0  0  0  0  0  0  0  0  0  0
    0.8529    1.9220   -0.6344 H   0  0  0  0  0  0  0  0  0  0  0  0
   -0.7836    2.0445    0.0558 H   0  0  0  0  0  0  0  0  0  0  0  0
  1  2  1  0
  2  3  1  0
  3  4  1  0
  2  5  1  0
  5  6  1  0
  1  7  1  0
  1  8  1  0
  1  9  1  0
  2 10  1  0
  3 11  1  0
  3 12  1  0
  5 13  1  0
  5 14  1  0
A    1
-0.366317
A    2
0.094517
A    3
-0.115869
A    4
-0.190169
A    5
-0.117019
A    6
-0.194151
A    7
0.111893
A    8
0.113787
A    9
0.103045
A   10
0.082602
A   11
0.117832
A   12
0.119653
A   13
0.121115
A   14
0.119083
M  END
