
     RDKit          3D

 26 25  0  0  0  0  0  0  0  0999 V2000
   -2.5794    0.4142    1.3748 C   0  0  0  0  0  0  0  0  0  0  0  0
   -1.2018    0.8667    1.0364 C   0  0  0  0  0  0  0  0  0  0  0  0
   -0.4602   -0.1004    0.1141 C   0  0  0  0  0  0  0  0  0  0  0  0
   -0.3694   -1.4108    0.8096 C   0  0  0  0  0  0  0  0  0  0  0  0
   -1.2299   -0.3008   -1.1758 C   0  0  0  0  0  0  0  0  0  0  0  0
    0.8554    0.5327   -0.2056 C   0  0  0  0  0  0  0  0  0  0  0  0
    1.7406   -0.2600   -1.1037 C   0  0  0  0  0  0  0  0  0  0  0  0
    2.1954   -1.9865   -0.3657 Br  0  0  0  0  0  0  0  0  0  0  0  0
    3.0601    0.5213   -1.1944 C   0  0  0  0  0  0  0  0  0  0  0  0
    3.7963    0.6715    0.5883 Br  0  0  0  0  0  0  0  0  0  0  0  0
   -3.0893   -0.1087    0.5656 H   0  0  0  0  0  0  0  0  0  0  0  0
   -3.1872    1.3412    1.5863 H   0  0  0  0  0  0  0  0  0  0  0  0
   -2.5308   -0.1543    2.3271 H   0  0  0  0  0  0  0  0  0  0  0  0
   -1.1746    1.8860    0.5564 H   0  0  0  0  0  0  0  0  0  0  0  0
   -0.5787    0.9220    1.9619 H   0  0  0  0  0  0  0  0  0  0  0  0
   -1.3105   -1.5181    1.4274 H   0  0  0  0  0  0  0  0  0  0  0  0
   -0.3725   -2.2886    0.1380 H   0  0  0  0  0  0  0  0  0  0  0  0
    0.4571   -1.4380    1.5581 H   0  0  0  0  0  0  0  0  0  0  0  0
   -1.4795    0.6926   -1.6270 H   0  0  0  0  0  0  0  0  0  0  0  0
   -2.1317   -0.9289   -1.0351 H   0  0  0  0  0  0  0  0  0  0  0  0
   -0.5647   -0.8847   -1.8546 H   0  0  0  0  0  0  0  0  0  0  0  0
    1.4374    0.7476    0.7287 H   0  0  0  0  0  0  0  0  0  0  0  0
    0.6923    1.5217   -0.6792 H   0  0  0  0  0  0  0  0  0  0  0  0
    1.3745   -0.3350   -2.1513 H   0  0  0  0  0  0  0  0  0  0  0  0
    3.7824    0.0252   -1.8418 H   0  0  0  0  0  0  0  0  0  0  0  0
    2.8687    1.5721   -1.5385 H   0  0  0  0  0  0  0  0  0  0  0  0
  1  2  1  0
  2  3  1  0
  3  4  1  0
  3  5  1  0
  3  6  1  0
  6  7  1  0
  7  8  1  0
  7  9  1  0
  9 10  1  0
  1 11  1  0
  1 12  1  0
  1 13  1  0
  2 14  1  0
  2 15  1  0
  4 16  1  0
  4 17  1  0
  4 18  1  0
  5 19  1  0
  5 20  1  0
  5 21  1  0
  6 22  1  0
  6 23  1  0
  7 24  1  0
  9 25  1  0
  9 26  1  0
A    1
-0.322740
A    2
-0.125025
A    3
0.220205
A    4
-0.385944
A    5
-0.385762
A    6
-0.234953
A    7
0.111003
A    8
-0.221209
A    9
-0.127544
A   10
-0.179306
A   11
0.098489
A   12
0.099534
A   13
0.098936
A   14
0.066754
A   15
0.071553
A   16
0.106887
A   17
0.105965
A   18
0.107245
A   19
0.106431
A   20
0.109435
A   21
0.111860
A   22
0.090354
A   23
0.087553
A   24
0.112053
A   25
0.132757
A   26
0.145469
M  END
