
     RDKit          3D

 23 22  0  0  0  0  0  0  0  0999 V2000
    2.0503    0.6327   -0.8516 C   0  0  0  0  0  0  0  0  0  0  0  0
    0.8561    1.2707   -0.2559 C   0  0  0  0  0  0  0  0  0  0  0  0
   -0.0250    0.3825    0.5516 C   0  0  0  0  0  0  0  0  0  0  0  0
   -1.4973    1.4987    1.1960 Br  0  0  0  0  0  0  0  0  0  0  0  0
    0.6644   -0.1517    1.7843 C   0  0  0  0  0  0  0  0  0  0  0  0
    1.2253    1.3015    2.9330 Br  0  0  0  0  0  0  0  0  0  0  0  0
   -0.6186   -0.6778   -0.3041 C   0  0  0  0  0  0  0  0  0  0  0  0
   -1.4319    0.0299   -1.3909 C   0  0  0  0  0  0  0  0  0  0  0  0
   -1.4934   -1.6493    0.4304 C   0  0  0  0  0  0  0  0  0  0  0  0
    1.8466    0.2541   -1.8935 H   0  0  0  0  0  0  0  0  0  0  0  0
    2.8271    1.4380   -1.0098 H   0  0  0  0  0  0  0  0  0  0  0  0
    2.5072   -0.1802   -0.2967 H   0  0  0  0  0  0  0  0  0  0  0  0
    1.1413    2.1538    0.3846 H   0  0  0  0  0  0  0  0  0  0  0  0
    0.2308    1.7116   -1.0735 H   0  0  0  0  0  0  0  0  0  0  0  0
    1.6015   -0.6708    1.4617 H   0  0  0  0  0  0  0  0  0  0  0  0
    0.0626   -0.8916    2.3238 H   0  0  0  0  0  0  0  0  0  0  0  0
    0.1851   -1.2463   -0.8343 H   0  0  0  0  0  0  0  0  0  0  0  0
   -2.2830   -0.6347   -1.6303 H   0  0  0  0  0  0  0  0  0  0  0  0
   -1.8289    0.9980   -0.9891 H   0  0  0  0  0  0  0  0  0  0  0  0
   -0.8424    0.1702   -2.3030 H   0  0  0  0  0  0  0  0  0  0  0  0
   -1.0066   -2.6542    0.4754 H   0  0  0  0  0  0  0  0  0  0  0  0
   -1.7437   -1.2799    1.4537 H   0  0  0  0  0  0  0  0  0  0  0  0
   -2.4274   -1.8054   -0.1619 H   0  0  0  0  0  0  0  0  0  0  0  0
  1  2  1  0
  2  3  1  0
  3  4  1  0
  3  5  1  0
  5  6  1  0
  3  7  1  0
  7  8  1  0
  7  9  1  0
  1 10  1  0
  1 11  1  0
  1 12  1  0
  2 13  1  0
  2 14  1  0
  5 15  1  0
  5 16  1  0
  7 17  1  0
  8 18  1  0
  8 19  1  0
  8 20  1  0
  9 21  1  0
  9 22  1  0
  9 23  1  0
A    1
-0.319431
A    2
-0.154510
A    3
0.184892
A    4
-0.228221
A    5
-0.164928
A    6
-0.171466
A    7
0.072398
A    8
-0.363350
A    9
-0.359783
A   10
0.101862
A   11
0.114597
A   12
0.107008
A   13
0.082372
A   14
0.088658
A   15
0.144134
A   16
0.146045
A   17
0.065456
A   18
0.111794
A   19
0.107743
A   20
0.109139
A   21
0.109657
A   22
0.105447
A   23
0.110486
M  END
