
     RDKit          3D

 17 16  0  0  0  0  0  0  0  0999 V2000
   -1.9409   -0.2260    0.6338 C   0  0  0  0  0  0  0  0  0  0  0  0
   -0.6867    0.5730    0.4328 C   0  0  0  0  0  0  0  0  0  0  0  0
   -1.2138    2.3197   -0.2607 Br  0  0  0  0  0  0  0  0  0  0  0  0
    0.2625   -0.0262   -0.5460 C   0  0  0  0  0  0  0  0  0  0  0  0
    1.4729    0.8890   -0.6411 C   0  0  0  0  0  0  0  0  0  0  0  0
    0.7599   -1.3898   -0.1738 C   0  0  0  0  0  0  0  0  0  0  0  0
    1.6751   -1.2363    1.5297 Br  0  0  0  0  0  0  0  0  0  0  0  0
   -2.5325   -0.3730   -0.2705 H   0  0  0  0  0  0  0  0  0  0  0  0
   -1.7550   -1.1795    1.1815 H   0  0  0  0  0  0  0  0  0  0  0  0
   -2.5898    0.3786    1.3332 H   0  0  0  0  0  0  0  0  0  0  0  0
   -0.1802    0.7156    1.3848 H   0  0  0  0  0  0  0  0  0  0  0  0
   -0.1612   -0.0894   -1.5649 H   0  0  0  0  0  0  0  0  0  0  0  0
    2.4222    0.3461   -0.4618 H   0  0  0  0  0  0  0  0  0  0  0  0
    1.4843    1.4511   -1.6139 H   0  0  0  0  0  0  0  0  0  0  0  0
    1.4411    1.6903    0.1469 H   0  0  0  0  0  0  0  0  0  0  0  0
    1.5369   -1.6688   -0.9274 H   0  0  0  0  0  0  0  0  0  0  0  0
    0.0054   -2.1744   -0.1824 H   0  0  0  0  0  0  0  0  0  0  0  0
  1  2  1  0
  2  3  1  0
  2  4  1  0
  4  5  1  0
  4  6  1  0
  6  7  1  0
  1  8  1  0
  1  9  1  0
  1 10  1  0
  2 11  1  0
  4 12  1  0
  5 13  1  0
  5 14  1  0
  5 15  1  0
  6 16  1  0
  6 17  1  0
A    1
-0.374560
A    2
0.114508
A    3
-0.230898
A    4
0.037548
A    5
-0.368637
A    6
-0.108690
A    7
-0.184965
A    8
0.121257
A    9
0.120449
A   10
0.123990
A   11
0.091871
A   12
0.082469
A   13
0.113561
A   14
0.108261
A   15
0.107848
A   16
0.129111
A   17
0.116878
M  END
