
     RDKit          3D

 11 10  0  0  0  0  0  0  0  0999 V2000
    1.1802   -0.5128   -0.0214 C   0  0  0  0  0  0  0  0  0  0  0  0
    0.1223    0.5466   -0.0479 C   0  0  0  0  0  0  0  0  0  0  0  0
   -1.2818   -0.0267   -0.0383 C   0  0  0  0  0  0  0  0  0  0  0  0
    0.3430    1.8374    1.3866 Br  0  0  0  0  0  0  0  0  0  0  0  0
    2.0149   -0.2940   -0.7267 H   0  0  0  0  0  0  0  0  0  0  0  0
    1.5640   -0.7503    0.9729 H   0  0  0  0  0  0  0  0  0  0  0  0
    0.7058   -1.4528   -0.4201 H   0  0  0  0  0  0  0  0  0  0  0  0
    0.2467    1.1339   -1.0024 H   0  0  0  0  0  0  0  0  0  0  0  0
   -1.9524    0.7368   -0.4518 H   0  0  0  0  0  0  0  0  0  0  0  0
   -1.3083   -0.9602   -0.6315 H   0  0  0  0  0  0  0  0  0  0  0  0
   -1.6343   -0.2578    0.9806 H   0  0  0  0  0  0  0  0  0  0  0  0
  1  2  1  0
  2  3  1  0
  2  4  1  0
  1  5  1  0
  1  6  1  0
  1  7  1  0
  2  8  1  0
  3  9  1  0
  3 10  1  0
  3 11  1  0
A    1
-0.370332
A    2
0.208315
A    3
-0.371275
A    4
-0.262462
A    5
0.116551
A    6
0.118174
A    7
0.121517
A    8
0.082344
A    9
0.117758
A   10
0.120677
A   11
0.118733
M  END
