
     RDKit          3D

 11 10  0  0  0  0  0  0  0  0999 V2000
    2.8634    0.2597   -0.5483 Br  0  0  0  0  0  0  0  0  0  0  0  0
    1.2071    0.0699    0.4559 C   0  0  0  0  0  0  0  0  0  0  0  0
    0.0950   -0.0470   -0.5354 C   0  0  0  0  0  0  0  0  0  0  0  0
   -1.2641   -0.2016    0.0980 C   0  0  0  0  0  0  0  0  0  0  0  0
   -1.7034    1.3117    1.2251 Br  0  0  0  0  0  0  0  0  0  0  0  0
   -2.5838   -0.3989   -1.3048 Br  0  0  0  0  0  0  0  0  0  0  0  0
    1.1281    1.0004    1.0707 H   0  0  0  0  0  0  0  0  0  0  0  0
    1.2457   -0.7667    1.1529 H   0  0  0  0  0  0  0  0  0  0  0  0
    0.2729   -0.9568   -1.1398 H   0  0  0  0  0  0  0  0  0  0  0  0
    0.0803    0.8293   -1.2095 H   0  0  0  0  0  0  0  0  0  0  0  0
   -1.3411   -1.1000    0.7352 H   0  0  0  0  0  0  0  0  0  0  0  0
  1  2  1  0
  2  3  1  0
  3  4  1  0
  4  5  1  0
  4  6  1  0
  2  7  1  0
  2  8  1  0
  3  9  1  0
  3 10  1  0
  4 11  1  0
A    1
-0.186844
A    2
-0.071637
A    3
-0.177726
A    4
0.115283
A    5
-0.154304
A    6
-0.160636
A    7
0.115005
A    8
0.132855
A    9
0.116035
A   10
0.109381
A   11
0.162588
M  END
