
     RDKit          3D

 14 13  0  0  0  0  0  0  0  0999 V2000
   -1.9052   -0.0813   -0.3449 C   0  0  0  0  0  0  0  0  0  0  0  0
   -0.5769   -0.5733    0.2270 C   0  0  0  0  0  0  0  0  0  0  0  0
    0.4434    0.4789   -0.0694 C   0  0  0  0  0  0  0  0  0  0  0  0
    1.8193    0.1084    0.4515 C   0  0  0  0  0  0  0  0  0  0  0  0
    2.9759    1.6065   -0.0409 Br  0  0  0  0  0  0  0  0  0  0  0  0
    2.4979   -1.4642   -0.4422 Br  0  0  0  0  0  0  0  0  0  0  0  0
   -2.4407    0.5624    0.3749 H   0  0  0  0  0  0  0  0  0  0  0  0
   -1.6941    0.5164   -1.2635 H   0  0  0  0  0  0  0  0  0  0  0  0
   -2.5791   -0.9247   -0.6008 H   0  0  0  0  0  0  0  0  0  0  0  0
   -0.7253   -0.7304    1.3198 H   0  0  0  0  0  0  0  0  0  0  0  0
   -0.3135   -1.5151   -0.2954 H   0  0  0  0  0  0  0  0  0  0  0  0
    0.1315    1.4735    0.3075 H   0  0  0  0  0  0  0  0  0  0  0  0
    0.5278    0.5656   -1.1713 H   0  0  0  0  0  0  0  0  0  0  0  0
    1.8389   -0.0228    1.5478 H   0  0  0  0  0  0  0  0  0  0  0  0
  1  2  1  0
  2  3  1  0
  3  4  1  0
  4  5  1  0
  4  6  1  0
  1  7  1  0
  1  8  1  0
  1  9  1  0
  2 10  1  0
  2 11  1  0
  3 12  1  0
  3 13  1  0
  4 14  1  0
A    1
-0.320644
A    2
-0.067486
A    3
-0.176423
A    4
0.115993
A    5
-0.180441
A    6
-0.166086
A    7
0.099638
A    8
0.103877
A    9
0.101207
A   10
0.072161
A   11
0.063505
A   12
0.101390
A   13
0.098268
A   14
0.155041
M  END
