
     RDKit          3D

 32 31  0  0  0  0  0  0  0  0999 V2000
   -4.5844   -0.0525    0.1608 C   0  0  0  0  0  0  0  0  0  0  0  0
   -3.7841   -0.7099   -0.9268 C   0  0  0  0  0  0  0  0  0  0  0  0
   -2.2913   -0.6121   -0.6778 C   0  0  0  0  0  0  0  0  0  0  0  0
   -1.8460    0.8194   -0.6036 C   0  0  0  0  0  0  0  0  0  0  0  0
   -0.3754    0.9510   -0.3640 C   0  0  0  0  0  0  0  0  0  0  0  0
    0.0772    0.3300    0.9092 C   0  0  0  0  0  0  0  0  0  0  0  0
    1.5607    0.4727    1.1451 C   0  0  0  0  0  0  0  0  0  0  0  0
    2.4030   -0.1523    0.0872 C   0  0  0  0  0  0  0  0  0  0  0  0
    3.8556    0.0969    0.5028 C   0  0  0  0  0  0  0  0  0  0  0  0
    4.8267   -0.4825   -0.4787 C   0  0  0  0  0  0  0  0  0  0  0  0
    4.1193   -0.6656    2.2437 Br  0  0  0  0  0  0  0  0  0  0  0  0
   -4.5615    1.0473    0.1168 H   0  0  0  0  0  0  0  0  0  0  0  0
   -4.2562   -0.4489    1.1462 H   0  0  0  0  0  0  0  0  0  0  0  0
   -5.6450   -0.3568    0.0156 H   0  0  0  0  0  0  0  0  0  0  0  0
   -4.0303   -1.7940   -0.9088 H   0  0  0  0  0  0  0  0  0  0  0  0
   -4.0297   -0.2997   -1.9167 H   0  0  0  0  0  0  0  0  0  0  0  0
   -1.9887   -1.2336    0.1721 H   0  0  0  0  0  0  0  0  0  0  0  0
   -1.8053   -1.0510   -1.5941 H   0  0  0  0  0  0  0  0  0  0  0  0
   -2.3650    1.2689    0.2753 H   0  0  0  0  0  0  0  0  0  0  0  0
   -2.1547    1.3591   -1.5185 H   0  0  0  0  0  0  0  0  0  0  0  0
    0.2278    0.5665   -1.2359 H   0  0  0  0  0  0  0  0  0  0  0  0
   -0.1642    2.0567   -0.2835 H   0  0  0  0  0  0  0  0  0  0  0  0
   -0.4209    0.8798    1.7540 H   0  0  0  0  0  0  0  0  0  0  0  0
   -0.2357   -0.7157    1.0057 H   0  0  0  0  0  0  0  0  0  0  0  0
    1.8151    1.5359    1.2309 H   0  0  0  0  0  0  0  0  0  0  0  0
    1.7867   -0.0154    2.1062 H   0  0  0  0  0  0  0  0  0  0  0  0
    2.2733   -1.2503    0.1068 H   0  0  0  0  0  0  0  0  0  0  0  0
    2.2162    0.2307   -0.9280 H   0  0  0  0  0  0  0  0  0  0  0  0
    3.9726    1.2083    0.5329 H   0  0  0  0  0  0  0  0  0  0  0  0
    4.5934   -0.2614   -1.5295 H   0  0  0  0  0  0  0  0  0  0  0  0
    5.8179    0.0190   -0.2826 H   0  0  0  0  0  0  0  0  0  0  0  0
    4.9929   -1.5522   -0.2631 H   0  0  0  0  0  0  0  0  0  0  0  0
  1  2  1  0
  2  3  1  0
  3  4  1  0
  4  5  1  0
  5  6  1  0
  6  7  1  0
  7  8  1  0
  8  9  1  0
  9 10  1  0
  9 11  1  0
  1 12  1  0
  1 13  1  0
  1 14  1  0
  2 15  1  0
  2 16  1  0
  3 17  1  0
  3 18  1  0
  4 19  1  0
  4 20  1  0
  5 21  1  0
  5 22  1  0
  6 23  1  0
  6 24  1  0
  7 25  1  0
  7 26  1  0
  8 27  1  0
  8 28  1  0
  9 29  1  0
 10 30  1  0
 10 31  1  0
 10 32  1  0
A    1
-0.324603
A    2
-0.074180
A    3
-0.124996
A    4
-0.125541
A    5
-0.121838
A    6
-0.121550
A    7
-0.126359
A    8
-0.171790
A    9
0.161664
A   10
-0.375033
A   11
-0.251871
A   12
0.094159
A   13
0.096532
A   14
0.095527
A   15
0.055908
A   16
0.059519
A   17
0.064124
A   18
0.060069
A   19
0.063871
A   20
0.060930
A   21
0.061918
A   22
0.061688
A   23
0.066791
A   24
0.068059
A   25
0.067824
A   26
0.062896
A   27
0.087576
A   28
0.088113
A   29
0.082914
A   30
0.120368
A   31
0.117104
A   32
0.120207
M  END
