
     RDKit          3D

 17 16  0  0  0  0  0  0  0  0999 V2000
    1.9935   -0.1562    0.4455 C   0  0  0  0  0  0  0  0  0  0  0  0
    0.7048   -0.7592   -0.0275 C   0  0  0  0  0  0  0  0  0  0  0  0
   -0.3202    0.2589   -0.4341 C   0  0  0  0  0  0  0  0  0  0  0  0
   -1.5590   -0.5216   -0.8846 C   0  0  0  0  0  0  0  0  0  0  0  0
    0.2588    1.3363   -1.9020 Br  0  0  0  0  0  0  0  0  0  0  0  0
   -0.7611    1.1510    0.6916 C   0  0  0  0  0  0  0  0  0  0  0  0
   -1.5522    0.1568    2.1404 Br  0  0  0  0  0  0  0  0  0  0  0  0
    2.5664    0.3319   -0.3817 H   0  0  0  0  0  0  0  0  0  0  0  0
    1.8252    0.5608    1.2483 H   0  0  0  0  0  0  0  0  0  0  0  0
    2.6212   -0.9881    0.8374 H   0  0  0  0  0  0  0  0  0  0  0  0
    0.3110   -1.3963    0.7710 H   0  0  0  0  0  0  0  0  0  0  0  0
    0.8986   -1.4019   -0.9090 H   0  0  0  0  0  0  0  0  0  0  0  0
   -1.4109   -0.9057   -1.9177 H   0  0  0  0  0  0  0  0  0  0  0  0
   -2.4331    0.1440   -0.8137 H   0  0  0  0  0  0  0  0  0  0  0  0
   -1.6662   -1.4197   -0.2091 H   0  0  0  0  0  0  0  0  0  0  0  0
   -1.5491    1.8223    0.2769 H   0  0  0  0  0  0  0  0  0  0  0  0
    0.0725    1.7868    1.0681 H   0  0  0  0  0  0  0  0  0  0  0  0
  1  2  1  0
  2  3  1  0
  3  4  1  0
  3  5  1  0
  3  6  1  0
  6  7  1  0
  1  8  1  0
  1  9  1  0
  1 10  1  0
  2 11  1  0
  2 12  1  0
  4 13  1  0
  4 14  1  0
  4 15  1  0
  6 16  1  0
  6 17  1  0
A    1
-0.321373
A    2
-0.153094
A    3
0.273227
A    4
-0.415897
A    5
-0.221823
A    6
-0.168654
A    7
-0.160676
A    8
0.098698
A    9
0.101822
A   10
0.111751
A   11
0.090520
A   12
0.093670
A   13
0.131829
A   14
0.130085
A   15
0.125559
A   16
0.147525
A   17
0.136832
M  END
