
     RDKit          3D

 17 16  0  0  0  0  0  0  0  0999 V2000
   -2.4372    0.0733   -0.8802 C   0  0  0  0  0  0  0  0  0  0  0  0
   -1.3302   -0.1199    0.0968 C   0  0  0  0  0  0  0  0  0  0  0  0
    0.0393    0.1166   -0.4743 C   0  0  0  0  0  0  0  0  0  0  0  0
    1.0394   -0.1238    0.6548 C   0  0  0  0  0  0  0  0  0  0  0  0
    2.4681    0.0963    0.1587 C   0  0  0  0  0  0  0  0  0  0  0  0
    2.7272    1.8750   -0.4818 Br  0  0  0  0  0  0  0  0  0  0  0  0
    3.6242   -0.2624    1.6863 Br  0  0  0  0  0  0  0  0  0  0  0  0
    2.8481   -1.1562   -1.2649 Br  0  0  0  0  0  0  0  0  0  0  0  0
   -3.2295   -0.6805   -0.6908 H   0  0  0  0  0  0  0  0  0  0  0  0
   -2.9403    1.0649   -0.7857 H   0  0  0  0  0  0  0  0  0  0  0  0
   -2.1312   -0.0509   -1.9401 H   0  0  0  0  0  0  0  0  0  0  0  0
   -1.3548   -1.1695    0.4608 H   0  0  0  0  0  0  0  0  0  0  0  0
   -1.5109    0.5308    0.9654 H   0  0  0  0  0  0  0  0  0  0  0  0
    0.2758   -0.6389   -1.2517 H   0  0  0  0  0  0  0  0  0  0  0  0
    0.1665    1.1083   -0.9347 H   0  0  0  0  0  0  0  0  0  0  0  0
    0.9096   -1.1825    0.9552 H   0  0  0  0  0  0  0  0  0  0  0  0
    0.8358    0.5196    1.5227 H   0  0  0  0  0  0  0  0  0  0  0  0
  1  2  1  0
  2  3  1  0
  3  4  1  0
  4  5  1  0
  5  6  1  0
  5  7  1  0
  5  8  1  0
  1  9  1  0
  1 10  1  0
  1 11  1  0
  2 12  1  0
  2 13  1  0
  3 14  1  0
  3 15  1  0
  4 16  1  0
  4 17  1  0
A    1
-0.324091
A    2
-0.064073
A    3
-0.119645
A    4
-0.226302
A    5
0.231570
A    6
-0.100823
A    7
-0.126015
A    8
-0.100958
A    9
0.097547
A   10
0.100445
A   11
0.100411
A   12
0.066940
A   13
0.067366
A   14
0.072283
A   15
0.072512
A   16
0.127109
A   17
0.125723
M  END
