
     RDKit          3D

 17 16  0  0  0  0  0  0  0  0999 V2000
    1.2126   -0.9777   -0.5004 C   0  0  0  0  0  0  0  0  0  0  0  0
    0.4175    0.0406    0.2465 C   0  0  0  0  0  0  0  0  0  0  0  0
    1.2203    1.3255    0.2939 C   0  0  0  0  0  0  0  0  0  0  0  0
   -0.9341    0.3276   -0.3071 C   0  0  0  0  0  0  0  0  0  0  0  0
   -1.8696   -0.8088   -0.3798 C   0  0  0  0  0  0  0  0  0  0  0  0
   -1.7492    1.6987    0.8123 Br  0  0  0  0  0  0  0  0  0  0  0  0
    2.2920   -0.7785   -0.2522 H   0  0  0  0  0  0  0  0  0  0  0  0
    1.0274   -2.0081   -0.0848 H   0  0  0  0  0  0  0  0  0  0  0  0
    1.1305   -0.9330   -1.5824 H   0  0  0  0  0  0  0  0  0  0  0  0
    0.3294   -0.3137    1.3020 H   0  0  0  0  0  0  0  0  0  0  0  0
    0.8817    1.9548   -0.5802 H   0  0  0  0  0  0  0  0  0  0  0  0
    2.3015    1.1349    0.1039 H   0  0  0  0  0  0  0  0  0  0  0  0
    1.0525    1.8969    1.2121 H   0  0  0  0  0  0  0  0  0  0  0  0
   -0.8228    0.7984   -1.3113 H   0  0  0  0  0  0  0  0  0  0  0  0
   -2.6864   -0.5847   -1.0974 H   0  0  0  0  0  0  0  0  0  0  0  0
   -2.3702   -1.0001    0.6103 H   0  0  0  0  0  0  0  0  0  0  0  0
   -1.4330   -1.7729   -0.6889 H   0  0  0  0  0  0  0  0  0  0  0  0
  1  2  1  0
  2  3  1  0
  2  4  1  0
  4  5  1  0
  4  6  1  0
  1  7  1  0
  1  8  1  0
  1  9  1  0
  2 10  1  0
  3 11  1  0
  3 12  1  0
  3 13  1  0
  4 14  1  0
  5 15  1  0
  5 16  1  0
  5 17  1  0
A    1
-0.356046
A    2
0.084698
A    3
-0.365963
A    4
0.122351
A    5
-0.374741
A    6
-0.251166
A    7
0.112607
A    8
0.103584
A    9
0.107084
A   10
0.056064
A   11
0.106801
A   12
0.107450
A   13
0.099854
A   14
0.087060
A   15
0.119669
A   16
0.119299
A   17
0.121394
M  END
