
     RDKit          3D

 20 19  0  0  0  0  0  0  0  0999 V2000
   -2.2569    0.7190    1.1784 C   0  0  0  0  0  0  0  0  0  0  0  0
   -2.0287   -0.5262    0.3452 C   0  0  0  0  0  0  0  0  0  0  0  0
   -3.4610   -0.6746   -0.9757 Br  0  0  0  0  0  0  0  0  0  0  0  0
   -0.7602   -0.3510   -0.4234 C   0  0  0  0  0  0  0  0  0  0  0  0
    0.4537   -0.1461    0.4501 C   0  0  0  0  0  0  0  0  0  0  0  0
    1.6356    0.0113   -0.5165 C   0  0  0  0  0  0  0  0  0  0  0  0
    2.9235    0.2236    0.1918 C   0  0  0  0  0  0  0  0  0  0  0  0
    1.7265   -1.6259   -1.5498 Br  0  0  0  0  0  0  0  0  0  0  0  0
   -3.3507    0.7621    1.4525 H   0  0  0  0  0  0  0  0  0  0  0  0
   -1.6510    0.6792    2.0901 H   0  0  0  0  0  0  0  0  0  0  0  0
   -2.0792    1.5943    0.5379 H   0  0  0  0  0  0  0  0  0  0  0  0
   -2.0245   -1.3998    1.0201 H   0  0  0  0  0  0  0  0  0  0  0  0
   -0.5428   -1.2027   -1.0993 H   0  0  0  0  0  0  0  0  0  0  0  0
   -0.8648    0.5614   -1.0462 H   0  0  0  0  0  0  0  0  0  0  0  0
    0.6853   -1.0365    1.0707 H   0  0  0  0  0  0  0  0  0  0  0  0
    0.3717    0.7655    1.0697 H   0  0  0  0  0  0  0  0  0  0  0  0
    1.3784    0.8903   -1.1659 H   0  0  0  0  0  0  0  0  0  0  0  0
    3.4362   -0.7646    0.3763 H   0  0  0  0  0  0  0  0  0  0  0  0
    3.6173    0.7534   -0.5217 H   0  0  0  0  0  0  0  0  0  0  0  0
    2.7913    0.7673    1.1304 H   0  0  0  0  0  0  0  0  0  0  0  0
  1  2  1  0
  2  3  1  0
  2  4  1  0
  4  5  1  0
  5  6  1  0
  6  7  1  0
  6  8  1  0
  1  9  1  0
  1 10  1  0
  1 11  1  0
  2 12  1  0
  4 13  1  0
  4 14  1  0
  5 15  1  0
  5 16  1  0
  6 17  1  0
  7 18  1  0
  7 19  1  0
  7 20  1  0
A    1
-0.375401
A    2
0.167161
A    3
-0.253449
A    4
-0.177838
A    5
-0.163671
A    6
0.163188
A    7
-0.375015
A    8
-0.239980
A    9
0.122118
A   10
0.120881
A   11
0.121441
A   12
0.089286
A   13
0.079232
A   14
0.088318
A   15
0.092539
A   16
0.090898
A   17
0.088640
A   18
0.121721
A   19
0.118850
A   20
0.121081
M  END
