
     RDKit          3D

 20 19  0  0  0  0  0  0  0  0999 V2000
   -2.9543   -0.2727    0.2229 C   0  0  0  0  0  0  0  0  0  0  0  0
   -1.4698   -0.6573    0.3213 C   0  0  0  0  0  0  0  0  0  0  0  0
   -0.7252    0.6344    0.4923 C   0  0  0  0  0  0  0  0  0  0  0  0
    0.7470    0.5407    0.6538 C   0  0  0  0  0  0  0  0  0  0  0  0
    1.5328   -0.0871   -0.4354 C   0  0  0  0  0  0  0  0  0  0  0  0
    3.0112    0.0097    0.0255 C   0  0  0  0  0  0  0  0  0  0  0  0
    1.3919    0.7456   -2.1357 Br  0  0  0  0  0  0  0  0  0  0  0  0
    1.1399   -1.9950   -0.5872 Br  0  0  0  0  0  0  0  0  0  0  0  0
   -3.3064    0.0588    1.2004 H   0  0  0  0  0  0  0  0  0  0  0  0
   -3.5681   -1.1352   -0.1059 H   0  0  0  0  0  0  0  0  0  0  0  0
   -3.0303    0.5946   -0.4838 H   0  0  0  0  0  0  0  0  0  0  0  0
   -1.3254   -1.3347    1.1606 H   0  0  0  0  0  0  0  0  0  0  0  0
   -1.2108   -1.0845   -0.6834 H   0  0  0  0  0  0  0  0  0  0  0  0
   -1.0312    1.2980   -0.3536 H   0  0  0  0  0  0  0  0  0  0  0  0
   -1.1144    1.0835    1.4611 H   0  0  0  0  0  0  0  0  0  0  0  0
    0.8970   -0.0568    1.6100 H   0  0  0  0  0  0  0  0  0  0  0  0
    1.1152    1.5647    0.9243 H   0  0  0  0  0  0  0  0  0  0  0  0
    3.5916   -0.6704   -0.6430 H   0  0  0  0  0  0  0  0  0  0  0  0
    3.3055    1.0775   -0.1052 H   0  0  0  0  0  0  0  0  0  0  0  0
    3.0039   -0.3137    1.0754 H   0  0  0  0  0  0  0  0  0  0  0  0
  1  2  1  0
  2  3  1  0
  3  4  1  0
  4  5  1  0
  5  6  1  0
  5  7  1  0
  5  8  1  0
  1  9  1  0
  1 10  1  0
  1 11  1  0
  2 12  1  0
  2 13  1  0
  3 14  1  0
  3 15  1  0
  4 16  1  0
  4 17  1  0
  6 18  1  0
  6 19  1  0
  6 20  1  0
A    1
-0.320564
A    2
-0.081215
A    3
-0.113890
A    4
-0.207358
A    5
0.295276
A    6
-0.424017
A    7
-0.164587
A    8
-0.178088
A    9
0.094302
A   10
0.097614
A   11
0.098797
A   12
0.062641
A   13
0.058676
A   14
0.063507
A   15
0.076384
A   16
0.112255
A   17
0.105698
A   18
0.139225
A   19
0.139999
A   20
0.145345
M  END
