
     RDKit          3D

  8  7  0  0  0  0  0  0  0  0999 V2000
   -1.6361    1.3128   -0.3682 Br  0  0  0  0  0  0  0  0  0  0  0  0
   -0.6624   -0.1971    0.4050 C   0  0  0  0  0  0  0  0  0  0  0  0
    0.6784   -0.1911   -0.3250 C   0  0  0  0  0  0  0  0  0  0  0  0
    1.5342    1.5113    0.0254 Br  0  0  0  0  0  0  0  0  0  0  0  0
   -0.4902   -0.0303    1.4869 H   0  0  0  0  0  0  0  0  0  0  0  0
   -1.2133   -1.1324    0.1861 H   0  0  0  0  0  0  0  0  0  0  0  0
    1.2966   -1.0404    0.0075 H   0  0  0  0  0  0  0  0  0  0  0  0
    0.4928   -0.2328   -1.4176 H   0  0  0  0  0  0  0  0  0  0  0  0
  1  2  1  0
  2  3  1  0
  3  4  1  0
  2  5  1  0
  2  6  1  0
  3  7  1  0
  3  8  1  0
A    1
-0.199790
A    2
-0.080862
A    3
-0.081762
A    4
-0.199544
A    5
0.134047
A    6
0.146516
A    7
0.146429
A    8
0.134965
M  END
