
     RDKit          3D

 17 16  0  0  0  0  0  0  0  0999 V2000
   -2.5462    0.0482    0.2288 C   0  0  0  0  0  0  0  0  0  0  0  0
   -1.1545   -0.3507    0.6715 C   0  0  0  0  0  0  0  0  0  0  0  0
   -0.0919    0.2498   -0.2576 C   0  0  0  0  0  0  0  0  0  0  0  0
    1.2378   -0.1983    0.2593 C   0  0  0  0  0  0  0  0  0  0  0  0
    2.3951    0.3103   -0.5490 C   0  0  0  0  0  0  0  0  0  0  0  0
    4.0178   -0.3663    0.2634 Br  0  0  0  0  0  0  0  0  0  0  0  0
   -2.9632    0.8654    0.8487 H   0  0  0  0  0  0  0  0  0  0  0  0
   -2.5620    0.3601   -0.8490 H   0  0  0  0  0  0  0  0  0  0  0  0
   -3.2342   -0.8124    0.3467 H   0  0  0  0  0  0  0  0  0  0  0  0
   -0.9996    0.0139    1.7075 H   0  0  0  0  0  0  0  0  0  0  0  0
   -1.0471   -1.4524    0.7051 H   0  0  0  0  0  0  0  0  0  0  0  0
   -0.2558   -0.2570   -1.2489 H   0  0  0  0  0  0  0  0  0  0  0  0
   -0.2149    1.3278   -0.3589 H   0  0  0  0  0  0  0  0  0  0  0  0
    1.3526    0.1106    1.3013 H   0  0  0  0  0  0  0  0  0  0  0  0
    1.2604   -1.3136    0.1914 H   0  0  0  0  0  0  0  0  0  0  0  0
    2.4466    1.4303   -0.4984 H   0  0  0  0  0  0  0  0  0  0  0  0
    2.3591    0.0345   -1.6037 H   0  0  0  0  0  0  0  0  0  0  0  0
  1  2  1  0
  2  3  1  0
  3  4  1  0
  4  5  1  0
  5  6  1  0
  1  7  1  0
  1  8  1  0
  1  9  1  0
  2 10  1  0
  2 11  1  0
  3 12  1  0
  3 13  1  0
  4 14  1  0
  4 15  1  0
  5 16  1  0
  5 17  1  0
A    1
-0.328514
A    2
-0.071641
A    3
-0.126094
A    4
-0.132324
A    5
-0.064436
A    6
-0.226254
A    7
0.097719
A    8
0.096892
A    9
0.096634
A   10
0.064944
A   11
0.064194
A   12
0.071567
A   13
0.071328
A   14
0.079767
A   15
0.080701
A   16
0.112700
A   17
0.112817
M  END
