
     RDKit          3D

 17 16  0  0  0  0  0  0  0  0999 V2000
   -2.4136    0.2625    0.0704 C   0  0  0  0  0  0  0  0  0  0  0  0
   -1.1836    0.3609   -0.8104 C   0  0  0  0  0  0  0  0  0  0  0  0
   -0.0016   -0.0510    0.0188 C   0  0  0  0  0  0  0  0  0  0  0  0
   -0.2814   -1.8700    0.6180 Br  0  0  0  0  0  0  0  0  0  0  0  0
    1.2981    0.0105   -0.7396 C   0  0  0  0  0  0  0  0  0  0  0  0
    2.3902   -0.4307    0.2235 C   0  0  0  0  0  0  0  0  0  0  0  0
    2.3557    0.8202    1.7212 Br  0  0  0  0  0  0  0  0  0  0  0  0
   -2.4642   -0.8062    0.4121 H   0  0  0  0  0  0  0  0  0  0  0  0
   -3.3462    0.4769   -0.4813 H   0  0  0  0  0  0  0  0  0  0  0  0
   -2.2551    0.8909    0.9533 H   0  0  0  0  0  0  0  0  0  0  0  0
   -1.2749   -0.2224   -1.7406 H   0  0  0  0  0  0  0  0  0  0  0  0
   -1.0801    1.4546   -1.0715 H   0  0  0  0  0  0  0  0  0  0  0  0
    0.0528    0.5880    0.9126 H   0  0  0  0  0  0  0  0  0  0  0  0
    1.2518   -0.6494   -1.6323 H   0  0  0  0  0  0  0  0  0  0  0  0
    1.4992    1.0402   -1.0931 H   0  0  0  0  0  0  0  0  0  0  0  0
    3.3809   -0.4583   -0.2290 H   0  0  0  0  0  0  0  0  0  0  0  0
    2.0721   -1.4166    0.6644 H   0  0  0  0  0  0  0  0  0  0  0  0
  1  2  1  0
  2  3  1  0
  3  4  1  0
  3  5  1  0
  5  6  1  0
  6  7  1  0
  1  8  1  0
  1  9  1  0
  1 10  1  0
  2 11  1  0
  2 12  1  0
  3 13  1  0
  5 14  1  0
  5 15  1  0
  6 16  1  0
  6 17  1  0
A    1
-0.322173
A    2
-0.115968
A    3
0.103024
A    4
-0.226108
A    5
-0.175608
A    6
-0.067337
A    7
-0.200530
A    8
0.096077
A    9
0.104515
A   10
0.105737
A   11
0.082913
A   12
0.087024
A   13
0.085961
A   14
0.108895
A   15
0.101311
A   16
0.122546
A   17
0.109724
M  END
