
     RDKit          3D

 14 13  0  0  0  0  0  0  0  0999 V2000
   -1.8805   -0.1535   -0.1899 C   0  0  0  0  0  0  0  0  0  0  0  0
   -0.4332   -0.5896   -0.2264 C   0  0  0  0  0  0  0  0  0  0  0  0
    0.4580    0.5800    0.0834 C   0  0  0  0  0  0  0  0  0  0  0  0
    1.8964    0.0685    0.0291 C   0  0  0  0  0  0  0  0  0  0  0  0
    0.0734    1.2788    1.8469 Br  0  0  0  0  0  0  0  0  0  0  0  0
   -2.0735    0.6635   -0.9271 H   0  0  0  0  0  0  0  0  0  0  0  0
   -2.0362    0.3114    0.8092 H   0  0  0  0  0  0  0  0  0  0  0  0
   -2.5721   -0.9919   -0.2898 H   0  0  0  0  0  0  0  0  0  0  0  0
   -0.2814   -1.3433    0.5624 H   0  0  0  0  0  0  0  0  0  0  0  0
   -0.1689   -1.0107   -1.2070 H   0  0  0  0  0  0  0  0  0  0  0  0
    0.2895    1.3888   -0.6339 H   0  0  0  0  0  0  0  0  0  0  0  0
    1.8991   -0.9694    0.4218 H   0  0  0  0  0  0  0  0  0  0  0  0
    2.5329    0.6565    0.7353 H   0  0  0  0  0  0  0  0  0  0  0  0
    2.2966    0.1110   -1.0139 H   0  0  0  0  0  0  0  0  0  0  0  0
  1  2  1  0
  2  3  1  0
  3  4  1  0
  3  5  1  0
  1  6  1  0
  1  7  1  0
  1  8  1  0
  2  9  1  0
  2 10  1  0
  3 11  1  0
  4 12  1  0
  4 13  1  0
  4 14  1  0
A    1
-0.328085
A    2
-0.113753
A    3
0.155997
A    4
-0.374089
A    5
-0.251217
A    6
0.102055
A    7
0.098501
A    8
0.104056
A    9
0.081699
A   10
0.084454
A   11
0.084034
A   12
0.119901
A   13
0.117093
A   14
0.119356
M  END
