
     RDKit          3D

 32 31  0  0  0  0  0  0  0  0999 V2000
    3.3272   -1.2431   -0.6638 C   0  0  0  0  0  0  0  0  0  0  0  0
    2.9656   -0.8099    0.7617 C   0  0  0  0  0  0  0  0  0  0  0  0
    2.9301    0.6839    0.7670 C   0  0  0  0  0  0  0  0  0  0  0  0
    1.9238    1.2348   -0.1890 C   0  0  0  0  0  0  0  0  0  0  0  0
    0.5226    0.7388    0.1775 C   0  0  0  0  0  0  0  0  0  0  0  0
   -0.4100    1.3395   -0.8245 C   0  0  0  0  0  0  0  0  0  0  0  0
   -1.8404    0.9194   -0.5150 C   0  0  0  0  0  0  0  0  0  0  0  0
   -1.9363   -0.5651   -0.5897 C   0  0  0  0  0  0  0  0  0  0  0  0
   -3.3071   -1.0737   -0.4170 C   0  0  0  0  0  0  0  0  0  0  0  0
   -3.9542   -0.7225    0.8630 C   0  0  0  0  0  0  0  0  0  0  0  0
   -4.2819    1.1265    1.1756 Br  0  0  0  0  0  0  0  0  0  0  0  0
    3.6398   -2.2873   -0.6044 H   0  0  0  0  0  0  0  0  0  0  0  0
    2.4278   -1.1939   -1.3256 H   0  0  0  0  0  0  0  0  0  0  0  0
    4.1039   -0.5390   -1.0010 H   0  0  0  0  0  0  0  0  0  0  0  0
    2.0426   -1.2596    1.1201 H   0  0  0  0  0  0  0  0  0  0  0  0
    3.8357   -1.1661    1.3811 H   0  0  0  0  0  0  0  0  0  0  0  0
    3.9440    1.0500    0.5503 H   0  0  0  0  0  0  0  0  0  0  0  0
    2.6139    0.9987    1.7958 H   0  0  0  0  0  0  0  0  0  0  0  0
    1.8937    2.3305   -0.1316 H   0  0  0  0  0  0  0  0  0  0  0  0
    2.0931    0.9542   -1.2342 H   0  0  0  0  0  0  0  0  0  0  0  0
    0.3332    1.0863    1.2106 H   0  0  0  0  0  0  0  0  0  0  0  0
    0.5046   -0.3788    0.1304 H   0  0  0  0  0  0  0  0  0  0  0  0
   -0.3350    2.4290   -0.8954 H   0  0  0  0  0  0  0  0  0  0  0  0
   -0.1848    0.9432   -1.8420 H   0  0  0  0  0  0  0  0  0  0  0  0
   -2.5937    1.4622   -1.0767 H   0  0  0  0  0  0  0  0  0  0  0  0
   -1.9268    1.1601    0.6008 H   0  0  0  0  0  0  0  0  0  0  0  0
   -1.3164   -1.0460    0.2180 H   0  0  0  0  0  0  0  0  0  0  0  0
   -1.4462   -0.9410   -1.5369 H   0  0  0  0  0  0  0  0  0  0  0  0
   -3.9206   -0.6320   -1.2668 H   0  0  0  0  0  0  0  0  0  0  0  0
   -3.2966   -2.2014   -0.5600 H   0  0  0  0  0  0  0  0  0  0  0  0
   -4.9473   -1.2473    0.9108 H   0  0  0  0  0  0  0  0  0  0  0  0
   -3.4043   -1.1507    1.7545 H   0  0  0  0  0  0  0  0  0  0  0  0
  1  2  1  0
  2  3  1  0
  3  4  1  0
  4  5  1  0
  5  6  1  0
  6  7  1  0
  7  8  1  0
  8  9  1  0
  9 10  1  0
 10 11  1  0
  1 12  1  0
  1 13  1  0
  1 14  1  0
  2 15  1  0
  2 16  1  0
  3 17  1  0
  3 18  1  0
  4 19  1  0
  4 20  1  0
  5 21  1  0
  5 22  1  0
  6 23  1  0
  6 24  1  0
  7 25  1  0
  7 26  1  0
  8 27  1  0
  8 28  1  0
  9 29  1  0
  9 30  1  0
 10 31  1  0
 10 32  1  0
A    1
-0.325218
A    2
-0.072143
A    3
-0.125183
A    4
-0.123422
A    5
-0.126614
A    6
-0.124842
A    7
-0.126798
A    8
-0.122207
A    9
-0.120730
A   10
-0.058726
A   11
-0.219781
A   12
0.094852
A   13
0.094899
A   14
0.095624
A   15
0.059779
A   16
0.056615
A   17
0.060041
A   18
0.059602
A   19
0.062312
A   20
0.063087
A   21
0.066841
A   22
0.061842
A   23
0.063811
A   24
0.063029
A   25
0.063185
A   26
0.062808
A   27
0.066008
A   28
0.067879
A   29
0.080939
A   30
0.077565
A   31
0.110938
A   32
0.114008
M  END
