
     RDKit          3D

 20 19  0  0  0  0  0  0  0  0999 V2000
   -2.8884   -0.0858    0.0669 C   0  0  0  0  0  0  0  0  0  0  0  0
   -1.4064   -0.5007    0.1779 C   0  0  0  0  0  0  0  0  0  0  0  0
   -0.6754    0.6412    0.8161 C   0  0  0  0  0  0  0  0  0  0  0  0
    0.7726    0.2723    0.9675 C   0  0  0  0  0  0  0  0  0  0  0  0
    1.3621    0.0027   -0.3674 C   0  0  0  0  0  0  0  0  0  0  0  0
    1.1645    1.6360   -1.4229 Br  0  0  0  0  0  0  0  0  0  0  0  0
    2.8560   -0.2577   -0.3145 C   0  0  0  0  0  0  0  0  0  0  0  0
    3.2437   -1.8028    0.8021 Br  0  0  0  0  0  0  0  0  0  0  0  0
   -2.9935    0.7354   -0.6492 H   0  0  0  0  0  0  0  0  0  0  0  0
   -3.4106   -1.0214   -0.2574 H   0  0  0  0  0  0  0  0  0  0  0  0
   -3.2226    0.2469    1.0775 H   0  0  0  0  0  0  0  0  0  0  0  0
   -1.3399   -1.4477    0.7286 H   0  0  0  0  0  0  0  0  0  0  0  0
   -1.0863   -0.6651   -0.8901 H   0  0  0  0  0  0  0  0  0  0  0  0
   -0.7950    1.5145    0.1070 H   0  0  0  0  0  0  0  0  0  0  0  0
   -1.1422    0.9611    1.7672 H   0  0  0  0  0  0  0  0  0  0  0  0
    0.8549   -0.6132    1.6576 H   0  0  0  0  0  0  0  0  0  0  0  0
    1.2800    1.1137    1.4835 H   0  0  0  0  0  0  0  0  0  0  0  0
    0.8741   -0.7955   -0.9100 H   0  0  0  0  0  0  0  0  0  0  0  0
    3.1682   -0.5247   -1.3435 H   0  0  0  0  0  0  0  0  0  0  0  0
    3.3842    0.5909    0.1176 H   0  0  0  0  0  0  0  0  0  0  0  0
  1  2  1  0
  2  3  1  0
  3  4  1  0
  4  5  1  0
  5  6  1  0
  5  7  1  0
  7  8  1  0
  1  9  1  0
  1 10  1  0
  1 11  1  0
  2 12  1  0
  2 13  1  0
  3 14  1  0
  3 15  1  0
  4 16  1  0
  4 17  1  0
  5 18  1  0
  7 19  1  0
  7 20  1  0
A    1
-0.324772
A    2
-0.074171
A    3
-0.127392
A    4
-0.173521
A    5
0.099953
A    6
-0.202476
A    7
-0.131631
A    8
-0.175174
A    9
0.099299
A   10
0.096338
A   11
0.096459
A   12
0.064667
A   13
0.065751
A   14
0.061398
A   15
0.076021
A   16
0.087691
A   17
0.085958
A   18
0.104024
A   19
0.134514
A   20
0.137063
M  END
