
     RDKit          3D

 14 13  0  0  0  0  0  0  0  0999 V2000
   -1.9490    0.0637    0.1001 C   0  0  0  0  0  0  0  0  0  0  0  0
   -0.5723   -0.3765   -0.3552 C   0  0  0  0  0  0  0  0  0  0  0  0
    0.5215    0.5020    0.2385 C   0  0  0  0  0  0  0  0  0  0  0  0
    0.4829    0.4224    2.1543 Br  0  0  0  0  0  0  0  0  0  0  0  0
    1.8411   -0.0510   -0.2662 C   0  0  0  0  0  0  0  0  0  0  0  0
    3.3527    0.9206    0.3706 Br  0  0  0  0  0  0  0  0  0  0  0  0
    1.9179   -1.9308    0.1700 Br  0  0  0  0  0  0  0  0  0  0  0  0
   -2.1189    1.0951   -0.2291 H   0  0  0  0  0  0  0  0  0  0  0  0
   -2.0653    0.0238    1.1955 H   0  0  0  0  0  0  0  0  0  0  0  0
   -2.6768   -0.5820   -0.3997 H   0  0  0  0  0  0  0  0  0  0  0  0
   -0.3550   -1.4190   -0.0776 H   0  0  0  0  0  0  0  0  0  0  0  0
   -0.5613   -0.2678   -1.4594 H   0  0  0  0  0  0  0  0  0  0  0  0
    0.3853    1.5658   -0.0571 H   0  0  0  0  0  0  0  0  0  0  0  0
    1.7972    0.0337   -1.3846 H   0  0  0  0  0  0  0  0  0  0  0  0
  1  2  1  0
  2  3  1  0
  3  4  1  0
  3  5  1  0
  5  6  1  0
  5  7  1  0
  1  8  1  0
  1  9  1  0
  1 10  1  0
  2 11  1  0
  2 12  1  0
  3 13  1  0
  5 14  1  0
A    1
-0.318394
A    2
-0.112133
A    3
0.051085
A    4
-0.194838
A    5
0.059321
A    6
-0.154178
A    7
-0.139735
A    8
0.105216
A    9
0.101118
A   10
0.108075
A   11
0.082321
A   12
0.094436
A   13
0.142041
A   14
0.175665
M  END
