
     RDKit          3D

 17 16  0  0  0  0  0  0  0  0999 V2000
    0.4478   -0.8079   -1.2145 C   0  0  0  0  0  0  0  0  0  0  0  0
   -0.0184   -0.0205   -0.0066 C   0  0  0  0  0  0  0  0  0  0  0  0
    0.7199   -0.5499    1.2097 C   0  0  0  0  0  0  0  0  0  0  0  0
    2.6311   -0.3491    1.0134 Br  0  0  0  0  0  0  0  0  0  0  0  0
    0.3291    1.4566   -0.1443 C   0  0  0  0  0  0  0  0  0  0  0  0
   -0.5305    2.1779   -1.7201 Br  0  0  0  0  0  0  0  0  0  0  0  0
   -1.5019   -0.2262    0.1255 C   0  0  0  0  0  0  0  0  0  0  0  0
   -2.2456    0.7212    1.6294 Br  0  0  0  0  0  0  0  0  0  0  0  0
    1.5497   -0.8796   -1.2597 H   0  0  0  0  0  0  0  0  0  0  0  0
    0.0153   -0.4242   -2.1527 H   0  0  0  0  0  0  0  0  0  0  0  0
    0.0693   -1.8419   -1.0761 H   0  0  0  0  0  0  0  0  0  0  0  0
    0.4707   -1.6269    1.3789 H   0  0  0  0  0  0  0  0  0  0  0  0
    0.4350    0.0050    2.1305 H   0  0  0  0  0  0  0  0  0  0  0  0
   -0.0172    1.9624    0.7775 H   0  0  0  0  0  0  0  0  0  0  0  0
    1.4265    1.6055   -0.1850 H   0  0  0  0  0  0  0  0  0  0  0  0
   -1.7243   -1.2980    0.2710 H   0  0  0  0  0  0  0  0  0  0  0  0
   -2.0563    0.0956   -0.7769 H   0  0  0  0  0  0  0  0  0  0  0  0
  1  2  1  0
  2  3  1  0
  3  4  1  0
  2  5  1  0
  5  6  1  0
  2  7  1  0
  7  8  1  0
  1  9  1  0
  1 10  1  0
  1 11  1  0
  3 12  1  0
  3 13  1  0
  5 14  1  0
  5 15  1  0
  7 16  1  0
  7 17  1  0
A    1
-0.388044
A    2
0.205859
A    3
-0.146518
A    4
-0.168923
A    5
-0.147964
A    6
-0.171512
A    7
-0.143615
A    8
-0.176300
A    9
0.119691
A   10
0.116018
A   11
0.122886
A   12
0.140056
A   13
0.123738
A   14
0.122812
A   15
0.125788
A   16
0.140621
A   17
0.125406
M  END
