
     RDKit          3D

 20 19  0  0  0  0  0  0  0  0999 V2000
    0.5955   -1.7619   -0.0482 C   0  0  0  0  0  0  0  0  0  0  0  0
   -0.0240   -0.3830   -0.3684 C   0  0  0  0  0  0  0  0  0  0  0  0
    0.7113    0.7102    0.2794 C   0  0  0  0  0  0  0  0  0  0  0  0
    2.1957    0.7381   -0.1161 C   0  0  0  0  0  0  0  0  0  0  0  0
    2.9373    2.2499    0.8572 Br  0  0  0  0  0  0  0  0  0  0  0  0
   -1.4571   -0.4633    0.0474 C   0  0  0  0  0  0  0  0  0  0  0  0
   -2.2810    0.7413   -0.1304 C   0  0  0  0  0  0  0  0  0  0  0  0
   -1.7002    2.1718    1.0177 Br  0  0  0  0  0  0  0  0  0  0  0  0
    0.5114   -1.9828    1.0221 H   0  0  0  0  0  0  0  0  0  0  0  0
    0.0071   -2.5222   -0.6011 H   0  0  0  0  0  0  0  0  0  0  0  0
    1.6277   -1.8295   -0.3823 H   0  0  0  0  0  0  0  0  0  0  0  0
    0.0512   -0.2925   -1.4836 H   0  0  0  0  0  0  0  0  0  0  0  0
    0.6463    0.7641    1.3620 H   0  0  0  0  0  0  0  0  0  0  0  0
    0.2987    1.6807   -0.1627 H   0  0  0  0  0  0  0  0  0  0  0  0
    2.3128    0.8611   -1.2129 H   0  0  0  0  0  0  0  0  0  0  0  0
    2.6523   -0.1886    0.2674 H   0  0  0  0  0  0  0  0  0  0  0  0
   -1.5300   -0.7322    1.1599 H   0  0  0  0  0  0  0  0  0  0  0  0
   -1.9350   -1.3847   -0.4247 H   0  0  0  0  0  0  0  0  0  0  0  0
   -3.3522    0.4840    0.1011 H   0  0  0  0  0  0  0  0  0  0  0  0
   -2.2677    1.1395   -1.1838 H   0  0  0  0  0  0  0  0  0  0  0  0
  1  2  1  0
  2  3  1  0
  3  4  1  0
  4  5  1  0
  2  6  1  0
  6  7  1  0
  7  8  1  0
  1  9  1  0
  1 10  1  0
  1 11  1  0
  2 12  1  0
  3 13  1  0
  3 14  1  0
  4 15  1  0
  4 16  1  0
  6 17  1  0
  6 18  1  0
  7 19  1  0
  7 20  1  0
A    1
-0.362413
A    2
0.082948
A    3
-0.169820
A    4
-0.066181
A    5
-0.212579
A    6
-0.157285
A    7
-0.063448
A    8
-0.208782
A    9
0.109894
A   10
0.103963
A   11
0.104429
A   12
0.047441
A   13
0.086404
A   14
0.075407
A   15
0.114439
A   16
0.112097
A   17
0.090002
A   18
0.084748
A   19
0.114133
A   20
0.114604
M  END
