
     RDKit          3D

 17 16  0  0  0  0  0  0  0  0999 V2000
   -2.3584   -0.2235   -0.2004 C   0  0  0  0  0  0  0  0  0  0  0  0
   -0.9693   -0.2762    0.4531 C   0  0  0  0  0  0  0  0  0  0  0  0
   -1.1831    0.5014    2.2164 Br  0  0  0  0  0  0  0  0  0  0  0  0
   -0.0672    0.5598   -0.4092 C   0  0  0  0  0  0  0  0  0  0  0  0
    1.3468    0.6283    0.0753 C   0  0  0  0  0  0  0  0  0  0  0  0
    2.0242   -0.7038    0.1530 C   0  0  0  0  0  0  0  0  0  0  0  0
    2.3336    1.6844   -1.2472 Br  0  0  0  0  0  0  0  0  0  0  0  0
   -2.9332   -1.1389   -0.0020 H   0  0  0  0  0  0  0  0  0  0  0  0
   -2.1871   -0.1767   -1.3153 H   0  0  0  0  0  0  0  0  0  0  0  0
   -2.9007    0.6906    0.0646 H   0  0  0  0  0  0  0  0  0  0  0  0
   -0.6994   -1.3341    0.4899 H   0  0  0  0  0  0  0  0  0  0  0  0
   -0.4716    1.5967   -0.4019 H   0  0  0  0  0  0  0  0  0  0  0  0
   -0.0836    0.1903   -1.4334 H   0  0  0  0  0  0  0  0  0  0  0  0
    1.4560    1.1932    1.0305 H   0  0  0  0  0  0  0  0  0  0  0  0
    2.6309   -0.7531    1.0815 H   0  0  0  0  0  0  0  0  0  0  0  0
    2.7444   -0.8804   -0.6827 H   0  0  0  0  0  0  0  0  0  0  0  0
    1.3177   -1.5580    0.1279 H   0  0  0  0  0  0  0  0  0  0  0  0
  1  2  1  0
  2  3  1  0
  2  4  1  0
  4  5  1  0
  5  6  1  0
  5  7  1  0
  1  8  1  0
  1  9  1  0
  1 10  1  0
  2 11  1  0
  4 12  1  0
  4 13  1  0
  5 14  1  0
  6 15  1  0
  6 16  1  0
  6 17  1  0
A    1
-0.373344
A    2
0.161014
A    3
-0.235756
A    4
-0.224008
A    5
0.161162
A    6
-0.379078
A    7
-0.242404
A    8
0.119948
A    9
0.124336
A   10
0.124386
A   11
0.096542
A   12
0.099452
A   13
0.108145
A   14
0.085921
A   15
0.123619
A   16
0.121417
A   17
0.128647
M  END
