
     RDKit          3D

 26 25  0  0  0  0  0  0  0  0999 V2000
    3.3134    0.1027    0.5324 C   0  0  0  0  0  0  0  0  0  0  0  0
    2.1506    0.9696    0.1654 C   0  0  0  0  0  0  0  0  0  0  0  0
    1.2465    0.3447   -0.8604 C   0  0  0  0  0  0  0  0  0  0  0  0
    0.6501   -0.9522   -0.4132 C   0  0  0  0  0  0  0  0  0  0  0  0
   -0.1839   -0.8511    0.8191 C   0  0  0  0  0  0  0  0  0  0  0  0
   -1.3574    0.0811    0.6704 C   0  0  0  0  0  0  0  0  0  0  0  0
   -2.2957   -0.3442   -0.4258 C   0  0  0  0  0  0  0  0  0  0  0  0
   -3.4557    0.6224   -0.5351 C   0  0  0  0  0  0  0  0  0  0  0  0
   -3.0149   -2.1048   -0.1554 Br  0  0  0  0  0  0  0  0  0  0  0  0
    3.8274    0.5978    1.3989 H   0  0  0  0  0  0  0  0  0  0  0  0
    4.0941    0.0627   -0.2690 H   0  0  0  0  0  0  0  0  0  0  0  0
    3.0142   -0.8922    0.8915 H   0  0  0  0  0  0  0  0  0  0  0  0
    2.5570    1.9067   -0.2714 H   0  0  0  0  0  0  0  0  0  0  0  0
    1.5835    1.1828    1.0922 H   0  0  0  0  0  0  0  0  0  0  0  0
    0.5036    1.0860   -1.1897 H   0  0  0  0  0  0  0  0  0  0  0  0
    1.8803    0.1240   -1.7541 H   0  0  0  0  0  0  0  0  0  0  0  0
    1.4772   -1.6614   -0.2068 H   0  0  0  0  0  0  0  0  0  0  0  0
    0.0822   -1.3719   -1.2729 H   0  0  0  0  0  0  0  0  0  0  0  0
   -0.5283   -1.8718    1.0825 H   0  0  0  0  0  0  0  0  0  0  0  0
    0.4706   -0.5235    1.6514 H   0  0  0  0  0  0  0  0  0  0  0  0
   -1.0589    1.1153    0.4799 H   0  0  0  0  0  0  0  0  0  0  0  0
   -1.9269    0.0440    1.6233 H   0  0  0  0  0  0  0  0  0  0  0  0
   -1.7690   -0.3132   -1.4180 H   0  0  0  0  0  0  0  0  0  0  0  0
   -4.4388    0.0844   -0.6070 H   0  0  0  0  0  0  0  0  0  0  0  0
   -3.4697    1.2331    0.4107 H   0  0  0  0  0  0  0  0  0  0  0  0
   -3.3514    1.3287   -1.3759 H   0  0  0  0  0  0  0  0  0  0  0  0
  1  2  1  0
  2  3  1  0
  3  4  1  0
  4  5  1  0
  5  6  1  0
  6  7  1  0
  7  8  1  0
  7  9  1  0
  1 10  1  0
  1 11  1  0
  1 12  1  0
  2 13  1  0
  2 14  1  0
  3 15  1  0
  3 16  1  0
  4 17  1  0
  4 18  1  0
  5 19  1  0
  5 20  1  0
  6 21  1  0
  6 22  1  0
  7 23  1  0
  8 24  1  0
  8 25  1  0
  8 26  1  0
A    1
-0.324429
A    2
-0.073505
A    3
-0.126538
A    4
-0.124540
A    5
-0.129358
A    6
-0.172317
A    7
0.165450
A    8
-0.377734
A    9
-0.251065
A   10
0.096296
A   11
0.095955
A   12
0.095849
A   13
0.058356
A   14
0.060882
A   15
0.058410
A   16
0.065435
A   17
0.069171
A   18
0.063362
A   19
0.064474
A   20
0.070175
A   21
0.087901
A   22
0.086066
A   23
0.081601
A   24
0.117372
A   25
0.121182
A   26
0.121548
M  END
