
     RDKit          3D

 14 13  0  0  0  0  0  0  0  0999 V2000
    3.2608    1.2088    0.1164 Br  0  0  0  0  0  0  0  0  0  0  0  0
    1.8631   -0.0776   -0.0317 C   0  0  0  0  0  0  0  0  0  0  0  0
    0.4994    0.5182    0.2125 C   0  0  0  0  0  0  0  0  0  0  0  0
   -0.5688   -0.5392    0.0838 C   0  0  0  0  0  0  0  0  0  0  0  0
   -0.5736   -1.3302   -1.6757 Br  0  0  0  0  0  0  0  0  0  0  0  0
   -1.9479   -0.0151    0.3580 C   0  0  0  0  0  0  0  0  0  0  0  0
   -2.1573    0.7065    2.1167 Br  0  0  0  0  0  0  0  0  0  0  0  0
    1.9395   -0.5649   -1.0260 H   0  0  0  0  0  0  0  0  0  0  0  0
    2.0682   -0.8907    0.7247 H   0  0  0  0  0  0  0  0  0  0  0  0
    0.4904    0.9446    1.2313 H   0  0  0  0  0  0  0  0  0  0  0  0
    0.3613    1.3614   -0.4868 H   0  0  0  0  0  0  0  0  0  0  0  0
   -0.3460   -1.3164    0.8419 H   0  0  0  0  0  0  0  0  0  0  0  0
   -2.6940   -0.8159    0.2039 H   0  0  0  0  0  0  0  0  0  0  0  0
   -2.1951    0.8104   -0.3719 H   0  0  0  0  0  0  0  0  0  0  0  0
  1  2  1  0
  2  3  1  0
  3  4  1  0
  4  5  1  0
  4  6  1  0
  6  7  1  0
  2  8  1  0
  2  9  1  0
  3 10  1  0
  3 11  1  0
  4 12  1  0
  6 13  1  0
  6 14  1  0
A    1
-0.197937
A    2
-0.068470
A    3
-0.177083
A    4
0.101778
A    5
-0.199773
A    6
-0.132225
A    7
-0.171280
A    8
0.109976
A    9
0.127712
A   10
0.097824
A   11
0.100276
A   12
0.126003
A   13
0.139077
A   14
0.144121
M  END
