
     RDKit          3D

  8  7  0  0  0  0  0  0  0  0999 V2000
   -0.8211   -0.0451   -0.1289 C   0  0  0  0  0  0  0  0  0  0  0  0
    0.6284   -0.0622    0.2815 C   0  0  0  0  0  0  0  0  0  0  0  0
    1.6141   -1.4990   -0.5297 Br  0  0  0  0  0  0  0  0  0  0  0  0
    1.3980    1.6129   -0.3550 Br  0  0  0  0  0  0  0  0  0  0  0  0
   -0.9432    0.4274   -1.1405 H   0  0  0  0  0  0  0  0  0  0  0  0
   -1.3216    0.6817    0.5743 H   0  0  0  0  0  0  0  0  0  0  0  0
   -1.3135   -1.0192   -0.0673 H   0  0  0  0  0  0  0  0  0  0  0  0
    0.7589   -0.0964    1.3656 H   0  0  0  0  0  0  0  0  0  0  0  0
  1  2  1  0
  2  3  1  0
  2  4  1  0
  1  5  1  0
  1  6  1  0
  1  7  1  0
  2  8  1  0
A    1
-0.373979
A    2
0.164779
A    3
-0.176440
A    4
-0.176474
A    5
0.131798
A    6
0.136000
A    7
0.136357
A    8
0.157960
M  END
