
     RDKit          3D

 23 22  0  0  0  0  0  0  0  0999 V2000
   -1.2079    0.7572   -1.4563 C   0  0  0  0  0  0  0  0  0  0  0  0
   -0.8921   -0.0255   -0.2286 C   0  0  0  0  0  0  0  0  0  0  0  0
   -2.0573    0.1945    0.7448 C   0  0  0  0  0  0  0  0  0  0  0  0
   -0.9130   -1.5359   -0.5107 C   0  0  0  0  0  0  0  0  0  0  0  0
    0.4175    0.2585    0.4152 C   0  0  0  0  0  0  0  0  0  0  0  0
    1.6299    0.0165   -0.4064 C   0  0  0  0  0  0  0  0  0  0  0  0
    1.5841    1.1263   -1.9833 Br  0  0  0  0  0  0  0  0  0  0  0  0
    2.8856    0.4303    0.3723 C   0  0  0  0  0  0  0  0  0  0  0  0
    2.9659   -0.6346    1.9988 Br  0  0  0  0  0  0  0  0  0  0  0  0
   -0.8704    1.8055   -1.4128 H   0  0  0  0  0  0  0  0  0  0  0  0
   -2.3263    0.8432   -1.6248 H   0  0  0  0  0  0  0  0  0  0  0  0
   -0.8539    0.2611   -2.3897 H   0  0  0  0  0  0  0  0  0  0  0  0
   -1.8567   -0.3657    1.6831 H   0  0  0  0  0  0  0  0  0  0  0  0
   -2.2674    1.2541    0.8951 H   0  0  0  0  0  0  0  0  0  0  0  0
   -2.9384   -0.3125    0.2535 H   0  0  0  0  0  0  0  0  0  0  0  0
   -1.9232   -1.8767   -0.8002 H   0  0  0  0  0  0  0  0  0  0  0  0
   -0.1289   -1.8245   -1.2135 H   0  0  0  0  0  0  0  0  0  0  0  0
   -0.6591   -2.0101    0.4673 H   0  0  0  0  0  0  0  0  0  0  0  0
    0.5402   -0.3382    1.3619 H   0  0  0  0  0  0  0  0  0  0  0  0
    0.4139    1.3247    0.7904 H   0  0  0  0  0  0  0  0  0  0  0  0
    1.7926   -1.0525   -0.6541 H   0  0  0  0  0  0  0  0  0  0  0  0
    2.8724    1.5013    0.6268 H   0  0  0  0  0  0  0  0  0  0  0  0
    3.7925    0.2029   -0.1975 H   0  0  0  0  0  0  0  0  0  0  0  0
  1  2  1  0
  2  3  1  0
  2  4  1  0
  2  5  1  0
  5  6  1  0
  6  7  1  0
  6  8  1  0
  8  9  1  0
  1 10  1  0
  1 11  1  0
  1 12  1  0
  3 13  1  0
  3 14  1  0
  3 15  1  0
  4 16  1  0
  4 17  1  0
  4 18  1  0
  5 19  1  0
  5 20  1  0
  6 21  1  0
  8 22  1  0
  8 23  1  0
A    1
-0.385609
A    2
0.269004
A    3
-0.380600
A    4
-0.393587
A    5
-0.230424
A    6
0.117570
A    7
-0.210724
A    8
-0.137548
A    9
-0.165486
A   10
0.103075
A   11
0.109224
A   12
0.103676
A   13
0.106748
A   14
0.107425
A   15
0.106505
A   16
0.111141
A   17
0.106973
A   18
0.102427
A   19
0.088890
A   20
0.092809
A   21
0.102413
A   22
0.142728
A   23
0.133372
M  END
