
     RDKit          3D

 17 16  0  0  0  0  0  0  0  0999 V2000
   -1.4045   -0.5406   -0.4541 C   0  0  0  0  0  0  0  0  0  0  0  0
   -0.0418   -0.0317   -0.1126 C   0  0  0  0  0  0  0  0  0  0  0  0
    0.9720   -0.2371   -1.2053 C   0  0  0  0  0  0  0  0  0  0  0  0
    0.5409   -0.7517    1.1108 C   0  0  0  0  0  0  0  0  0  0  0  0
   -0.5459   -0.5205    2.6603 Br  0  0  0  0  0  0  0  0  0  0  0  0
   -0.1713    1.4225    0.2839 C   0  0  0  0  0  0  0  0  0  0  0  0
    1.5302    2.1975    0.7502 Br  0  0  0  0  0  0  0  0  0  0  0  0
   -1.8676   -0.9344    0.4761 H   0  0  0  0  0  0  0  0  0  0  0  0
   -2.0574    0.3008   -0.7854 H   0  0  0  0  0  0  0  0  0  0  0  0
   -1.4170   -1.2759   -1.2834 H   0  0  0  0  0  0  0  0  0  0  0  0
    0.7395    0.2719   -2.1407 H   0  0  0  0  0  0  0  0  0  0  0  0
    1.0975   -1.3438   -1.3178 H   0  0  0  0  0  0  0  0  0  0  0  0
    1.9524    0.1196   -0.8007 H   0  0  0  0  0  0  0  0  0  0  0  0
    1.5574   -0.3064    1.2440 H   0  0  0  0  0  0  0  0  0  0  0  0
    0.6436   -1.8173    0.7944 H   0  0  0  0  0  0  0  0  0  0  0  0
   -0.7915    1.4343    1.2270 H   0  0  0  0  0  0  0  0  0  0  0  0
   -0.7365    2.0129   -0.4468 H   0  0  0  0  0  0  0  0  0  0  0  0
  1  2  1  0
  2  3  1  0
  2  4  1  0
  4  5  1  0
  2  6  1  0
  6  7  1  0
  1  8  1  0
  1  9  1  0
  1 10  1  0
  3 11  1  0
  3 12  1  0
  3 13  1  0
  4 14  1  0
  4 15  1  0
  6 16  1  0
  6 17  1  0
A    1
-0.382707
A    2
0.234861
A    3
-0.386544
A    4
-0.138712
A    5
-0.185174
A    6
-0.140376
A    7
-0.185394
A    8
0.109493
A    9
0.117303
A   10
0.120978
A   11
0.122159
A   12
0.118321
A   13
0.110513
A   14
0.113958
A   15
0.127626
A   16
0.115430
A   17
0.128265
M  END
