
     RDKit          3D

 23 22  0  0  0  0  0  0  0  0999 V2000
   -3.5363    0.0079   -0.3072 C   0  0  0  0  0  0  0  0  0  0  0  0
   -2.1006    0.5641   -0.2626 C   0  0  0  0  0  0  0  0  0  0  0  0
   -1.1684   -0.5217   -0.6414 C   0  0  0  0  0  0  0  0  0  0  0  0
    0.2759   -0.2390   -0.7301 C   0  0  0  0  0  0  0  0  0  0  0  0
    1.1195   -1.9340   -1.2341 Br  0  0  0  0  0  0  0  0  0  0  0  0
    0.9334    0.3584    0.4762 C   0  0  0  0  0  0  0  0  0  0  0  0
    0.1497    2.0995    0.9069 Br  0  0  0  0  0  0  0  0  0  0  0  0
    2.3961    0.6168    0.3305 C   0  0  0  0  0  0  0  0  0  0  0  0
    3.2600   -0.5596    0.0590 C   0  0  0  0  0  0  0  0  0  0  0  0
   -4.1479    0.4246    0.5173 H   0  0  0  0  0  0  0  0  0  0  0  0
   -4.0323    0.2901   -1.2686 H   0  0  0  0  0  0  0  0  0  0  0  0
   -3.5301   -1.0967   -0.1725 H   0  0  0  0  0  0  0  0  0  0  0  0
   -1.9404    0.7430    0.8497 H   0  0  0  0  0  0  0  0  0  0  0  0
   -2.0698    1.4698   -0.8499 H   0  0  0  0  0  0  0  0  0  0  0  0
   -1.4799   -0.9175   -1.6576 H   0  0  0  0  0  0  0  0  0  0  0  0
   -1.2963   -1.4207    0.0181 H   0  0  0  0  0  0  0  0  0  0  0  0
    0.5197    0.4834   -1.5734 H   0  0  0  0  0  0  0  0  0  0  0  0
    0.7456   -0.3083    1.3723 H   0  0  0  0  0  0  0  0  0  0  0  0
    2.5456    1.4387   -0.4108 H   0  0  0  0  0  0  0  0  0  0  0  0
    2.7366    1.0505    1.3172 H   0  0  0  0  0  0  0  0  0  0  0  0
    3.4007   -0.7072   -1.0303 H   0  0  0  0  0  0  0  0  0  0  0  0
    4.3219   -0.3869    0.4324 H   0  0  0  0  0  0  0  0  0  0  0  0
    2.8975   -1.4550    0.5897 H   0  0  0  0  0  0  0  0  0  0  0  0
  1  2  1  0
  2  3  1  0
  3  4  1  0
  4  5  1  0
  4  6  1  0
  6  7  1  0
  6  8  1  0
  8  9  1  0
  1 10  1  0
  1 11  1  0
  1 12  1  0
  2 13  1  0
  2 14  1  0
  3 15  1  0
  3 16  1  0
  4 17  1  0
  6 18  1  0
  8 19  1  0
  8 20  1  0
  9 21  1  0
  9 22  1  0
  9 23  1  0
A    1
-0.318558
A    2
-0.071567
A    3
-0.176454
A    4
0.051286
A    5
-0.187154
A    6
0.067757
A    7
-0.210775
A    8
-0.114883
A    9
-0.324260
A   10
0.098254
A   11
0.100371
A   12
0.098779
A   13
0.068926
A   14
0.058880
A   15
0.086471
A   16
0.083356
A   17
0.111125
A   18
0.111684
A   19
0.078018
A   20
0.082124
A   21
0.091853
A   22
0.108984
A   23
0.105785
M  END
