
     RDKit          3D

 23 22  0  0  0  0  0  0  0  0999 V2000
   -3.3898   -0.1620    0.0007 C   0  0  0  0  0  0  0  0  0  0  0  0
   -1.8948   -0.0386    0.3254 C   0  0  0  0  0  0  0  0  0  0  0  0
   -1.1803   -0.8253   -0.7261 C   0  0  0  0  0  0  0  0  0  0  0  0
    0.3258   -0.8100   -0.5543 C   0  0  0  0  0  0  0  0  0  0  0  0
    0.8710    0.5624   -0.6163 C   0  0  0  0  0  0  0  0  0  0  0  0
    2.3249    0.7661   -0.4978 C   0  0  0  0  0  0  0  0  0  0  0  0
    2.6120    2.7070   -0.6351 Br  0  0  0  0  0  0  0  0  0  0  0  0
    3.0138    0.3260    0.7343 C   0  0  0  0  0  0  0  0  0  0  0  0
    2.9340   -1.5307    1.1409 Br  0  0  0  0  0  0  0  0  0  0  0  0
   -3.5184    0.0454   -1.0711 H   0  0  0  0  0  0  0  0  0  0  0  0
   -3.6244   -1.2520    0.1811 H   0  0  0  0  0  0  0  0  0  0  0  0
   -3.9841    0.4999    0.6543 H   0  0  0  0  0  0  0  0  0  0  0  0
   -1.7797   -0.4389    1.3470 H   0  0  0  0  0  0  0  0  0  0  0  0
   -1.6420    1.0432    0.3088 H   0  0  0  0  0  0  0  0  0  0  0  0
   -1.4432   -0.3969   -1.7095 H   0  0  0  0  0  0  0  0  0  0  0  0
   -1.5182   -1.8576   -0.7050 H   0  0  0  0  0  0  0  0  0  0  0  0
    0.7461   -1.4668   -1.3346 H   0  0  0  0  0  0  0  0  0  0  0  0
    0.5178   -1.3209    0.4267 H   0  0  0  0  0  0  0  0  0  0  0  0
    0.5620    1.0205   -1.6084 H   0  0  0  0  0  0  0  0  0  0  0  0
    0.3851    1.2216    0.1704 H   0  0  0  0  0  0  0  0  0  0  0  0
    2.9076    0.3428   -1.3595 H   0  0  0  0  0  0  0  0  0  0  0  0
    2.6649    0.9659    1.6030 H   0  0  0  0  0  0  0  0  0  0  0  0
    4.1099    0.5990    0.6563 H   0  0  0  0  0  0  0  0  0  0  0  0
  1  2  1  0
  2  3  1  0
  3  4  1  0
  4  5  1  0
  5  6  1  0
  6  7  1  0
  6  8  1  0
  8  9  1  0
  1 10  1  0
  1 11  1  0
  1 12  1  0
  2 13  1  0
  2 14  1  0
  3 15  1  0
  3 16  1  0
  4 17  1  0
  4 18  1  0
  5 19  1  0
  5 20  1  0
  6 21  1  0
  8 22  1  0
  8 23  1  0
A    1
-0.327521
A    2
-0.072082
A    3
-0.120742
A    4
-0.127464
A    5
-0.170376
A    6
0.106560
A    7
-0.229744
A    8
-0.122805
A    9
-0.179370
A   10
0.096972
A   11
0.096369
A   12
0.094314
A   13
0.063610
A   14
0.063035
A   15
0.067090
A   16
0.067769
A   17
0.068576
A   18
0.067111
A   19
0.085305
A   20
0.081875
A   21
0.112352
A   22
0.138574
A   23
0.140593
M  END
