
     RDKit          3D

 20 19  0  0  0  0  0  0  0  0999 V2000
   -1.9420   -0.5237    1.1545 C   0  0  0  0  0  0  0  0  0  0  0  0
   -0.7109    0.1478    0.5575 C   0  0  0  0  0  0  0  0  0  0  0  0
   -1.1811    1.0722   -0.5149 C   0  0  0  0  0  0  0  0  0  0  0  0
    0.2014   -0.9354    0.0942 C   0  0  0  0  0  0  0  0  0  0  0  0
    1.4785   -0.4524   -0.5280 C   0  0  0  0  0  0  0  0  0  0  0  0
    2.2856    0.3774    0.4460 C   0  0  0  0  0  0  0  0  0  0  0  0
    1.2239    0.5235   -2.1516 Br  0  0  0  0  0  0  0  0  0  0  0  0
   -2.0551   -1.5587    0.7639 H   0  0  0  0  0  0  0  0  0  0  0  0
   -1.8718   -0.5531    2.2436 H   0  0  0  0  0  0  0  0  0  0  0  0
   -2.8724    0.0128    0.8845 H   0  0  0  0  0  0  0  0  0  0  0  0
   -0.2297    0.7449    1.3491 H   0  0  0  0  0  0  0  0  0  0  0  0
   -2.1821    1.4797   -0.1829 H   0  0  0  0  0  0  0  0  0  0  0  0
   -1.3808    0.5776   -1.4806 H   0  0  0  0  0  0  0  0  0  0  0  0
   -0.5213    1.9487   -0.5813 H   0  0  0  0  0  0  0  0  0  0  0  0
   -0.3159   -1.6084   -0.6105 H   0  0  0  0  0  0  0  0  0  0  0  0
    0.4808   -1.5403    0.9824 H   0  0  0  0  0  0  0  0  0  0  0  0
    2.0742   -1.3574   -0.7900 H   0  0  0  0  0  0  0  0  0  0  0  0
    3.3559    0.2171    0.1909 H   0  0  0  0  0  0  0  0  0  0  0  0
    2.1495   -0.0004    1.4765 H   0  0  0  0  0  0  0  0  0  0  0  0
    2.0132    1.4280    0.3112 H   0  0  0  0  0  0  0  0  0  0  0  0
  1  2  1  0
  2  3  1  0
  2  4  1  0
  4  5  1  0
  5  6  1  0
  5  7  1  0
  1  8  1  0
  1  9  1  0
  1 10  1  0
  2 11  1  0
  3 12  1  0
  3 13  1  0
  3 14  1  0
  4 15  1  0
  4 16  1  0
  5 17  1  0
  6 18  1  0
  6 19  1  0
  6 20  1  0
A    1
-0.365127
A    2
0.131190
A    3
-0.362778
A    4
-0.206575
A    5
0.170271
A    6
-0.375735
A    7
-0.253870
A    8
0.106077
A    9
0.098767
A   10
0.102921
A   11
0.040051
A   12
0.101359
A   13
0.102515
A   14
0.093976
A   15
0.088336
A   16
0.085203
A   17
0.077738
A   18
0.119767
A   19
0.124023
A   20
0.121890
M  END
