
     RDKit          3D

 29 28  0  0  0  0  0  0  0  0999 V2000
   -3.8966    0.5027   -0.7857 C   0  0  0  0  0  0  0  0  0  0  0  0
   -3.5708    0.0428    0.6053 C   0  0  0  0  0  0  0  0  0  0  0  0
   -2.0677   -0.1005    0.8102 C   0  0  0  0  0  0  0  0  0  0  0  0
   -1.4768   -1.1001   -0.1427 C   0  0  0  0  0  0  0  0  0  0  0  0
    0.0052   -1.2755    0.0262 C   0  0  0  0  0  0  0  0  0  0  0  0
    0.7875   -0.0029   -0.1950 C   0  0  0  0  0  0  0  0  0  0  0  0
    2.2715   -0.2739   -0.0073 C   0  0  0  0  0  0  0  0  0  0  0  0
    3.0741    0.9865   -0.2240 C   0  0  0  0  0  0  0  0  0  0  0  0
    4.5440    0.7690   -0.0496 C   0  0  0  0  0  0  0  0  0  0  0  0
    5.5065    2.4020   -0.3369 Br  0  0  0  0  0  0  0  0  0  0  0  0
    4.9998    0.0015    1.6449 Br  0  0  0  0  0  0  0  0  0  0  0  0
   -3.3579    1.4218   -1.0599 H   0  0  0  0  0  0  0  0  0  0  0  0
   -4.9866    0.7216   -0.8118 H   0  0  0  0  0  0  0  0  0  0  0  0
   -3.7264   -0.3317   -1.4875 H   0  0  0  0  0  0  0  0  0  0  0  0
   -3.9950    0.7730    1.3235 H   0  0  0  0  0  0  0  0  0  0  0  0
   -4.0489   -0.9316    0.7816 H   0  0  0  0  0  0  0  0  0  0  0  0
   -1.9406   -0.5093    1.8340 H   0  0  0  0  0  0  0  0  0  0  0  0
   -1.5611    0.8803    0.7288 H   0  0  0  0  0  0  0  0  0  0  0  0
   -1.9371   -2.0952    0.0791 H   0  0  0  0  0  0  0  0  0  0  0  0
   -1.6973   -0.8378   -1.2166 H   0  0  0  0  0  0  0  0  0  0  0  0
    0.3324   -2.0723   -0.6624 H   0  0  0  0  0  0  0  0  0  0  0  0
    0.1819   -1.6417    1.0500 H   0  0  0  0  0  0  0  0  0  0  0  0
    0.4501    0.7898    0.4893 H   0  0  0  0  0  0  0  0  0  0  0  0
    0.6746    0.3856   -1.2274 H   0  0  0  0  0  0  0  0  0  0  0  0
    2.5752   -1.1075   -0.6385 H   0  0  0  0  0  0  0  0  0  0  0  0
    2.3988   -0.5788    1.0585 H   0  0  0  0  0  0  0  0  0  0  0  0
    2.7063    1.7495    0.4926 H   0  0  0  0  0  0  0  0  0  0  0  0
    2.8708    1.3883   -1.2373 H   0  0  0  0  0  0  0  0  0  0  0  0
    4.8841    0.0448   -0.8416 H   0  0  0  0  0  0  0  0  0  0  0  0
  1  2  1  0
  2  3  1  0
  3  4  1  0
  4  5  1  0
  5  6  1  0
  6  7  1  0
  7  8  1  0
  8  9  1  0
  9 10  1  0
  9 11  1  0
  1 12  1  0
  1 13  1  0
  1 14  1  0
  2 15  1  0
  2 16  1  0
  3 17  1  0
  3 18  1  0
  4 19  1  0
  4 20  1  0
  5 21  1  0
  5 22  1  0
  6 23  1  0
  6 24  1  0
  7 25  1  0
  7 26  1  0
  8 27  1  0
  8 28  1  0
  9 29  1  0
A    1
-0.320440
A    2
-0.075262
A    3
-0.125739
A    4
-0.121399
A    5
-0.128573
A    6
-0.117514
A    7
-0.125211
A    8
-0.174976
A    9
0.118651
A   10
-0.182457
A   11
-0.165023
A   12
0.094816
A   13
0.094558
A   14
0.093340
A   15
0.056515
A   16
0.060114
A   17
0.060812
A   18
0.062995
A   19
0.060471
A   20
0.063611
A   21
0.064079
A   22
0.068275
A   23
0.069845
A   24
0.069343
A   25
0.076554
A   26
0.068743
A   27
0.099041
A   28
0.101109
A   29
0.153722
M  END
