
     RDKit          3D

 14 13  0  0  0  0  0  0  0  0999 V2000
    1.5869   -0.1391   -0.5029 C   0  0  0  0  0  0  0  0  0  0  0  0
    0.6905    0.2899    0.6100 C   0  0  0  0  0  0  0  0  0  0  0  0
    0.7497   -0.9717    2.0905 Br  0  0  0  0  0  0  0  0  0  0  0  0
   -0.7258    0.5374    0.2144 C   0  0  0  0  0  0  0  0  0  0  0  0
   -1.4539   -0.6036   -0.3642 C   0  0  0  0  0  0  0  0  0  0  0  0
   -1.6606    1.0904    1.8375 Br  0  0  0  0  0  0  0  0  0  0  0  0
   -0.7705    2.0456   -0.9924 Br  0  0  0  0  0  0  0  0  0  0  0  0
    2.1109    0.7180   -0.9759 H   0  0  0  0  0  0  0  0  0  0  0  0
    2.4057   -0.7665   -0.0426 H   0  0  0  0  0  0  0  0  0  0  0  0
    1.1105   -0.7545   -1.2700 H   0  0  0  0  0  0  0  0  0  0  0  0
    1.0936    1.2510    1.0137 H   0  0  0  0  0  0  0  0  0  0  0  0
   -0.8912   -1.2469   -1.0538 H   0  0  0  0  0  0  0  0  0  0  0  0
   -1.9266   -1.2523    0.4044 H   0  0  0  0  0  0  0  0  0  0  0  0
   -2.3192   -0.1976   -0.9685 H   0  0  0  0  0  0  0  0  0  0  0  0
  1  2  1  0
  2  3  1  0
  2  4  1  0
  4  5  1  0
  4  6  1  0
  4  7  1  0
  1  8  1  0
  1  9  1  0
  1 10  1  0
  2 11  1  0
  5 12  1  0
  5 13  1  0
  5 14  1  0
A    1
-0.359780
A    2
0.060572
A    3
-0.183094
A    4
0.255840
A    5
-0.422619
A    6
-0.172481
A    7
-0.149412
A    8
0.120512
A    9
0.133191
A   10
0.123967
A   11
0.148412
A   12
0.150566
A   13
0.143104
A   14
0.151222
M  END
