
     RDKit          3D

 14 13  0  0  0  0  0  0  0  0999 V2000
    1.5185    0.2187   -0.2527 C   0  0  0  0  0  0  0  0  0  0  0  0
    0.5247   -0.6794    0.3892 C   0  0  0  0  0  0  0  0  0  0  0  0
    1.2433   -1.3274    2.0698 Br  0  0  0  0  0  0  0  0  0  0  0  0
   -0.8356   -0.0594    0.5826 C   0  0  0  0  0  0  0  0  0  0  0  0
   -1.3759    0.3282   -0.7606 C   0  0  0  0  0  0  0  0  0  0  0  0
   -0.7813    1.4258    1.8080 Br  0  0  0  0  0  0  0  0  0  0  0  0
    2.0077   -0.3028   -1.1255 H   0  0  0  0  0  0  0  0  0  0  0  0
    1.1309    1.1865   -0.5951 H   0  0  0  0  0  0  0  0  0  0  0  0
    2.3572    0.4410    0.4442 H   0  0  0  0  0  0  0  0  0  0  0  0
    0.3657   -1.5878   -0.2494 H   0  0  0  0  0  0  0  0  0  0  0  0
   -1.4854   -0.8366    1.0401 H   0  0  0  0  0  0  0  0  0  0  0  0
   -0.5970    0.5889   -1.5010 H   0  0  0  0  0  0  0  0  0  0  0  0
   -2.1127    1.1598   -0.7035 H   0  0  0  0  0  0  0  0  0  0  0  0
   -1.9603   -0.5554   -1.1460 H   0  0  0  0  0  0  0  0  0  0  0  0
  1  2  1  0
  2  3  1  0
  2  4  1  0
  4  5  1  0
  4  6  1  0
  1  7  1  0
  1  8  1  0
  1  9  1  0
  2 10  1  0
  4 11  1  0
  5 12  1  0
  5 13  1  0
  5 14  1  0
A    1
-0.370520
A    2
0.111053
A    3
-0.234889
A    4
0.101348
A    5
-0.362915
A    6
-0.216717
A    7
0.125404
A    8
0.124898
A    9
0.117979
A   10
0.121995
A   11
0.113018
A   12
0.118937
A   13
0.126210
A   14
0.124198
M  END
