
     RDKit          3D

 29 28  0  0  0  0  0  0  0  0999 V2000
   -4.5416   -0.3105   -0.2081 C   0  0  0  0  0  0  0  0  0  0  0  0
   -3.1276    0.0797    0.2180 C   0  0  0  0  0  0  0  0  0  0  0  0
   -2.3662    0.3447   -1.0607 C   0  0  0  0  0  0  0  0  0  0  0  0
   -0.9611    0.7434   -0.7849 C   0  0  0  0  0  0  0  0  0  0  0  0
   -0.1684   -0.3030   -0.0340 C   0  0  0  0  0  0  0  0  0  0  0  0
    1.2234    0.2684    0.1509 C   0  0  0  0  0  0  0  0  0  0  0  0
    2.1336   -0.6692    0.8889 C   0  0  0  0  0  0  0  0  0  0  0  0
    3.4881   -0.0067    1.0190 C   0  0  0  0  0  0  0  0  0  0  0  0
    4.6603   -1.2303    1.9774 Br  0  0  0  0  0  0  0  0  0  0  0  0
    4.1244    0.2624   -0.3120 C   0  0  0  0  0  0  0  0  0  0  0  0
    4.4076   -1.3264   -1.3340 Br  0  0  0  0  0  0  0  0  0  0  0  0
   -5.2225    0.2827    0.4507 H   0  0  0  0  0  0  0  0  0  0  0  0
   -4.7518   -0.0124   -1.2557 H   0  0  0  0  0  0  0  0  0  0  0  0
   -4.7085   -1.3966   -0.1363 H   0  0  0  0  0  0  0  0  0  0  0  0
   -2.6308   -0.7829    0.7205 H   0  0  0  0  0  0  0  0  0  0  0  0
   -3.1067    0.9758    0.8468 H   0  0  0  0  0  0  0  0  0  0  0  0
   -2.3342   -0.5792   -1.6943 H   0  0  0  0  0  0  0  0  0  0  0  0
   -2.8530    1.1866   -1.6134 H   0  0  0  0  0  0  0  0  0  0  0  0
   -0.8595    1.7389   -0.3101 H   0  0  0  0  0  0  0  0  0  0  0  0
   -0.4446    0.8483   -1.7836 H   0  0  0  0  0  0  0  0  0  0  0  0
   -0.1523   -1.2161   -0.6582 H   0  0  0  0  0  0  0  0  0  0  0  0
   -0.6321   -0.5712    0.9408 H   0  0  0  0  0  0  0  0  0  0  0  0
    1.1239    1.1906    0.7432 H   0  0  0  0  0  0  0  0  0  0  0  0
    1.6344    0.4249   -0.8641 H   0  0  0  0  0  0  0  0  0  0  0  0
    1.7089   -0.8988    1.8854 H   0  0  0  0  0  0  0  0  0  0  0  0
    2.2583   -1.6433    0.3724 H   0  0  0  0  0  0  0  0  0  0  0  0
    3.3796    0.8868    1.6376 H   0  0  0  0  0  0  0  0  0  0  0  0
    3.5894    1.0003   -0.9297 H   0  0  0  0  0  0  0  0  0  0  0  0
    5.1291    0.7131   -0.1033 H   0  0  0  0  0  0  0  0  0  0  0  0
  1  2  1  0
  2  3  1  0
  3  4  1  0
  4  5  1  0
  5  6  1  0
  6  7  1  0
  7  8  1  0
  8  9  1  0
  8 10  1  0
 10 11  1  0
  1 12  1  0
  1 13  1  0
  1 14  1  0
  2 15  1  0
  2 16  1  0
  3 17  1  0
  3 18  1  0
  4 19  1  0
  4 20  1  0
  5 21  1  0
  5 22  1  0
  6 23  1  0
  6 24  1  0
  7 25  1  0
  7 26  1  0
  8 27  1  0
 10 28  1  0
 10 29  1  0
A    1
-0.329113
A    2
-0.074462
A    3
-0.127344
A    4
-0.130346
A    5
-0.118657
A    6
-0.121782
A    7
-0.178151
A    8
0.106187
A    9
-0.239146
A   10
-0.127060
A   11
-0.177998
A   12
0.094552
A   13
0.096537
A   14
0.096825
A   15
0.060145
A   16
0.061109
A   17
0.065793
A   18
0.062367
A   19
0.064267
A   20
0.063979
A   21
0.073145
A   22
0.066505
A   23
0.071889
A   24
0.071297
A   25
0.089306
A   26
0.081383
A   27
0.120599
A   28
0.137965
A   29
0.140208
M  END
