
     RDKit          3D

 14 13  0  0  0  0  0  0  0  0999 V2000
    2.6276   -0.3882   -0.2599 Br  0  0  0  0  0  0  0  0  0  0  0  0
    1.1632   -0.1182    0.9608 C   0  0  0  0  0  0  0  0  0  0  0  0
    0.2524    0.9934    0.5065 C   0  0  0  0  0  0  0  0  0  0  0  0
   -0.3194    0.6790   -0.8505 C   0  0  0  0  0  0  0  0  0  0  0  0
   -1.1057   -0.5868   -0.7909 C   0  0  0  0  0  0  0  0  0  0  0  0
   -2.5350   -0.3429    0.5023 Br  0  0  0  0  0  0  0  0  0  0  0  0
    0.5735   -1.0035    1.1787 H   0  0  0  0  0  0  0  0  0  0  0  0
    1.6346    0.1774    1.9442 H   0  0  0  0  0  0  0  0  0  0  0  0
   -0.5591    1.0587    1.2741 H   0  0  0  0  0  0  0  0  0  0  0  0
    0.7595    1.9839    0.5299 H   0  0  0  0  0  0  0  0  0  0  0  0
   -0.9339    1.5585   -1.1417 H   0  0  0  0  0  0  0  0  0  0  0  0
    0.4846    0.6260   -1.6284 H   0  0  0  0  0  0  0  0  0  0  0  0
   -0.5194   -1.4555   -0.4414 H   0  0  0  0  0  0  0  0  0  0  0  0
   -1.5228   -0.8846   -1.7838 H   0  0  0  0  0  0  0  0  0  0  0  0
  1  2  1  0
  2  3  1  0
  3  4  1  0
  4  5  1  0
  5  6  1  0
  2  7  1  0
  2  8  1  0
  3  9  1  0
  3 10  1  0
  4 11  1  0
  4 12  1  0
  5 13  1  0
  5 14  1  0
A    1
-0.211643
A    2
-0.070855
A    3
-0.127164
A    4
-0.126009
A    5
-0.074329
A    6
-0.211301
A    7
0.121426
A    8
0.116655
A    9
0.084366
A   10
0.086552
A   11
0.087606
A   12
0.083926
A   13
0.123364
A   14
0.117404
M  END
