
     RDKit          3D

 11 10  0  0  0  0  0  0  0  0999 V2000
   -1.2561   -0.2070   -0.2250 C   0  0  0  0  0  0  0  0  0  0  0  0
    0.0391    0.5573   -0.0956 C   0  0  0  0  0  0  0  0  0  0  0  0
   -0.2781    1.9626    1.2137 Br  0  0  0  0  0  0  0  0  0  0  0  0
    0.4483    1.3914   -1.7637 Br  0  0  0  0  0  0  0  0  0  0  0  0
    1.1625   -0.3115    0.4080 C   0  0  0  0  0  0  0  0  0  0  0  0
    1.5453   -1.7959   -0.7196 Br  0  0  0  0  0  0  0  0  0  0  0  0
   -1.3376   -0.8477    0.6808 H   0  0  0  0  0  0  0  0  0  0  0  0
   -2.1047    0.4806   -0.3123 H   0  0  0  0  0  0  0  0  0  0  0  0
   -1.2590   -0.8812   -1.0957 H   0  0  0  0  0  0  0  0  0  0  0  0
    0.9636   -0.6692    1.4332 H   0  0  0  0  0  0  0  0  0  0  0  0
    2.0766    0.3208    0.4762 H   0  0  0  0  0  0  0  0  0  0  0  0
  1  2  1  0
  2  3  1  0
  2  4  1  0
  2  5  1  0
  5  6  1  0
  1  7  1  0
  1  8  1  0
  1  9  1  0
  5 10  1  0
  5 11  1  0
A    1
-0.424409
A    2
0.302687
A    3
-0.156224
A    4
-0.169054
A    5
-0.195351
A    6
-0.146763
A    7
0.152525
A    8
0.145981
A    9
0.143686
A   10
0.176331
A   11
0.170592
M  END
