
     RDKit          3D

 17 16  0  0  0  0  0  0  0  0999 V2000
    2.4493    0.0936    0.1794 C   0  0  0  0  0  0  0  0  0  0  0  0
    1.1356   -0.5940    0.5142 C   0  0  0  0  0  0  0  0  0  0  0  0
    0.0451    0.1725   -0.1818 C   0  0  0  0  0  0  0  0  0  0  0  0
   -1.3272   -0.4033    0.0642 C   0  0  0  0  0  0  0  0  0  0  0  0
   -2.3107    0.4825   -0.7051 C   0  0  0  0  0  0  0  0  0  0  0  0
   -1.8242   -0.2762    1.9316 Br  0  0  0  0  0  0  0  0  0  0  0  0
    3.2725   -0.6502    0.0383 H   0  0  0  0  0  0  0  0  0  0  0  0
    2.7826    0.7141    1.0587 H   0  0  0  0  0  0  0  0  0  0  0  0
    2.3848    0.7610   -0.6779 H   0  0  0  0  0  0  0  0  0  0  0  0
    1.1558   -1.6454    0.1504 H   0  0  0  0  0  0  0  0  0  0  0  0
    0.9716   -0.6406    1.5986 H   0  0  0  0  0  0  0  0  0  0  0  0
    0.2236    0.1228   -1.2741 H   0  0  0  0  0  0  0  0  0  0  0  0
    0.0447    1.2219    0.1268 H   0  0  0  0  0  0  0  0  0  0  0  0
   -1.4355   -1.4409   -0.2739 H   0  0  0  0  0  0  0  0  0  0  0  0
   -2.0465    0.3768   -1.7694 H   0  0  0  0  0  0  0  0  0  0  0  0
   -3.3460    0.1919   -0.4670 H   0  0  0  0  0  0  0  0  0  0  0  0
   -2.1754    1.5135   -0.3131 H   0  0  0  0  0  0  0  0  0  0  0  0
  1  2  1  0
  2  3  1  0
  3  4  1  0
  4  5  1  0
  4  6  1  0
  1  7  1  0
  1  8  1  0
  1  9  1  0
  2 10  1  0
  2 11  1  0
  3 12  1  0
  3 13  1  0
  4 14  1  0
  5 15  1  0
  5 16  1  0
  5 17  1  0
A    1
-0.323388
A    2
-0.075134
A    3
-0.174942
A    4
0.162053
A    5
-0.376252
A    6
-0.253255
A    7
0.098633
A    8
0.100430
A    9
0.096549
A   10
0.065050
A   11
0.061751
A   12
0.089406
A   13
0.087199
A   14
0.083067
A   15
0.120908
A   16
0.117567
A   17
0.120358
M  END
