
     RDKit          3D

 23 22  0  0  0  0  0  0  0  0999 V2000
   -3.4381   -0.4311   -0.4026 C   0  0  0  0  0  0  0  0  0  0  0  0
   -2.3515    0.3744    0.2187 C   0  0  0  0  0  0  0  0  0  0  0  0
   -0.9709    0.0441   -0.3599 C   0  0  0  0  0  0  0  0  0  0  0  0
    0.0124    0.9272    0.3582 C   0  0  0  0  0  0  0  0  0  0  0  0
    1.4282    0.7189   -0.1032 C   0  0  0  0  0  0  0  0  0  0  0  0
    1.9135   -0.6906    0.1058 C   0  0  0  0  0  0  0  0  0  0  0  0
    3.3558   -0.7323   -0.4110 C   0  0  0  0  0  0  0  0  0  0  0  0
    3.4118   -0.2655   -2.2840 Br  0  0  0  0  0  0  0  0  0  0  0  0
   -3.8780   -1.2017    0.2856 H   0  0  0  0  0  0  0  0  0  0  0  0
   -3.1830   -0.8605   -1.3919 H   0  0  0  0  0  0  0  0  0  0  0  0
   -4.2978    0.2736   -0.6040 H   0  0  0  0  0  0  0  0  0  0  0  0
   -2.4914    1.4469    0.0787 H   0  0  0  0  0  0  0  0  0  0  0  0
   -2.2960    0.1371    1.3042 H   0  0  0  0  0  0  0  0  0  0  0  0
   -0.6873   -0.9968   -0.1857 H   0  0  0  0  0  0  0  0  0  0  0  0
   -1.0055    0.2309   -1.4499 H   0  0  0  0  0  0  0  0  0  0  0  0
   -0.0540    0.7127    1.4259 H   0  0  0  0  0  0  0  0  0  0  0  0
   -0.2401    1.9905    0.1617 H   0  0  0  0  0  0  0  0  0  0  0  0
    2.0717    1.3808    0.5244 H   0  0  0  0  0  0  0  0  0  0  0  0
    1.5879    1.0006   -1.1486 H   0  0  0  0  0  0  0  0  0  0  0  0
    1.9554   -0.9521    1.1819 H   0  0  0  0  0  0  0  0  0  0  0  0
    1.3524   -1.4263   -0.5036 H   0  0  0  0  0  0  0  0  0  0  0  0
    3.9758    0.0314    0.1372 H   0  0  0  0  0  0  0  0  0  0  0  0
    3.8288   -1.7120   -0.2069 H   0  0  0  0  0  0  0  0  0  0  0  0
  1  2  1  0
  2  3  1  0
  3  4  1  0
  4  5  1  0
  5  6  1  0
  6  7  1  0
  7  8  1  0
  1  9  1  0
  1 10  1  0
  1 11  1  0
  2 12  1  0
  2 13  1  0
  3 14  1  0
  3 15  1  0
  4 16  1  0
  4 17  1  0
  5 18  1  0
  5 19  1  0
  6 20  1  0
  6 21  1  0
  7 22  1  0
  7 23  1  0
A    1
-0.326560
A    2
-0.073638
A    3
-0.127144
A    4
-0.123429
A    5
-0.130680
A    6
-0.122215
A    7
-0.066977
A    8
-0.215572
A    9
0.095706
A   10
0.096356
A   11
0.093278
A   12
0.059916
A   13
0.059519
A   14
0.065616
A   15
0.068404
A   16
0.062515
A   17
0.064474
A   18
0.066718
A   19
0.066586
A   20
0.085949
A   21
0.078210
A   22
0.110742
A   23
0.112227
M  END
