
     RDKit          3D

 17 16  0  0  0  0  0  0  0  0999 V2000
   -1.0743   -1.0785    0.4641 C   0  0  0  0  0  0  0  0  0  0  0  0
   -0.5280    0.1223   -0.3047 C   0  0  0  0  0  0  0  0  0  0  0  0
   -1.3532    1.3597   -0.0019 C   0  0  0  0  0  0  0  0  0  0  0  0
   -0.6951   -0.2522   -2.1971 Br  0  0  0  0  0  0  0  0  0  0  0  0
    0.8863    0.4116    0.0749 C   0  0  0  0  0  0  0  0  0  0  0  0
    1.8382   -0.7152   -0.1895 C   0  0  0  0  0  0  0  0  0  0  0  0
    3.6066   -0.1288    0.3735 Br  0  0  0  0  0  0  0  0  0  0  0  0
   -0.4367   -1.9468    0.2275 H   0  0  0  0  0  0  0  0  0  0  0  0
   -2.1332   -1.2323    0.1522 H   0  0  0  0  0  0  0  0  0  0  0  0
   -1.0739   -0.9067    1.5417 H   0  0  0  0  0  0  0  0  0  0  0  0
   -2.4367    1.1930   -0.1399 H   0  0  0  0  0  0  0  0  0  0  0  0
   -1.0461    2.1320   -0.7638 H   0  0  0  0  0  0  0  0  0  0  0  0
   -1.0816    1.6775    1.0254 H   0  0  0  0  0  0  0  0  0  0  0  0
    1.2248    1.2975   -0.4773 H   0  0  0  0  0  0  0  0  0  0  0  0
    0.9071    0.6441    1.1583 H   0  0  0  0  0  0  0  0  0  0  0  0
    1.5779   -1.6457    0.3404 H   0  0  0  0  0  0  0  0  0  0  0  0
    1.8179   -0.9315   -1.2839 H   0  0  0  0  0  0  0  0  0  0  0  0
  1  2  1  0
  2  3  1  0
  2  4  1  0
  2  5  1  0
  5  6  1  0
  6  7  1  0
  1  8  1  0
  1  9  1  0
  1 10  1  0
  3 11  1  0
  3 12  1  0
  3 13  1  0
  5 14  1  0
  5 15  1  0
  6 16  1  0
  6 17  1  0
A    1
-0.408523
A    2
0.319368
A    3
-0.405321
A    4
-0.247022
A    5
-0.207469
A    6
-0.067906
A    7
-0.200118
A    8
0.129440
A    9
0.128313
A   10
0.132566
A   11
0.125894
A   12
0.127614
A   13
0.129903
A   14
0.101167
A   15
0.107128
A   16
0.123515
A   17
0.111449
M  END
