
     RDKit          3D

 23 22  0  0  0  0  0  0  0  0999 V2000
   -3.4936   -0.6491   -0.3144 C   0  0  0  0  0  0  0  0  0  0  0  0
   -2.4147    0.3067    0.0352 C   0  0  0  0  0  0  0  0  0  0  0  0
   -1.0272   -0.2000   -0.4306 C   0  0  0  0  0  0  0  0  0  0  0  0
   -0.0665    0.8517   -0.0135 C   0  0  0  0  0  0  0  0  0  0  0  0
    1.3565    0.6993   -0.3362 C   0  0  0  0  0  0  0  0  0  0  0  0
    2.2829    2.2794    0.3746 Br  0  0  0  0  0  0  0  0  0  0  0  0
    2.0855   -0.4697    0.2500 C   0  0  0  0  0  0  0  0  0  0  0  0
    3.5377   -0.3728   -0.2142 C   0  0  0  0  0  0  0  0  0  0  0  0
    1.3453   -2.1691   -0.2916 Br  0  0  0  0  0  0  0  0  0  0  0  0
   -3.1001   -1.5625   -0.7879 H   0  0  0  0  0  0  0  0  0  0  0  0
   -4.0818   -0.9091    0.6012 H   0  0  0  0  0  0  0  0  0  0  0  0
   -4.1799   -0.1364   -1.0425 H   0  0  0  0  0  0  0  0  0  0  0  0
   -2.3548    0.5156    1.1247 H   0  0  0  0  0  0  0  0  0  0  0  0
   -2.5291    1.2978   -0.4555 H   0  0  0  0  0  0  0  0  0  0  0  0
   -1.0899   -0.3982   -1.5018 H   0  0  0  0  0  0  0  0  0  0  0  0
   -0.9259   -1.1555    0.1533 H   0  0  0  0  0  0  0  0  0  0  0  0
   -0.4338    1.8270   -0.4470 H   0  0  0  0  0  0  0  0  0  0  0  0
   -0.1837    0.9795    1.1014 H   0  0  0  0  0  0  0  0  0  0  0  0
    1.5847    0.7404   -1.4290 H   0  0  0  0  0  0  0  0  0  0  0  0
    2.0737   -0.3822    1.3504 H   0  0  0  0  0  0  0  0  0  0  0  0
    3.6057   -1.0174   -1.1232 H   0  0  0  0  0  0  0  0  0  0  0  0
    4.2344   -0.7595    0.5664 H   0  0  0  0  0  0  0  0  0  0  0  0
    3.7745    0.6840   -0.4387 H   0  0  0  0  0  0  0  0  0  0  0  0
  1  2  1  0
  2  3  1  0
  3  4  1  0
  4  5  1  0
  5  6  1  0
  5  7  1  0
  7  8  1  0
  7  9  1  0
  1 10  1  0
  1 11  1  0
  1 12  1  0
  2 13  1  0
  2 14  1  0
  3 15  1  0
  3 16  1  0
  4 17  1  0
  4 18  1  0
  5 19  1  0
  7 20  1  0
  8 21  1  0
  8 22  1  0
  8 23  1  0
A    1
-0.322407
A    2
-0.060176
A    3
-0.130539
A    4
-0.170531
A    5
0.058228
A    6
-0.211798
A    7
0.110906
A    8
-0.374551
A    9
-0.195514
A   10
0.099579
A   11
0.094626
A   12
0.093931
A   13
0.063115
A   14
0.059562
A   15
0.069934
A   16
0.060025
A   17
0.081578
A   18
0.087853
A   19
0.111326
A   20
0.112102
A   21
0.122222
A   22
0.120969
A   23
0.119560
M  END
