
     RDKit          3D

 20 19  0  0  0  0  0  0  0  0999 V2000
   -1.2142    0.7778   -0.9444 C   0  0  0  0  0  0  0  0  0  0  0  0
   -0.8178    0.0247    0.2845 C   0  0  0  0  0  0  0  0  0  0  0  0
   -1.3703   -1.3898    0.1588 C   0  0  0  0  0  0  0  0  0  0  0  0
    0.6520   -0.0139    0.5304 C   0  0  0  0  0  0  0  0  0  0  0  0
    1.1834    1.3878    0.6882 C   0  0  0  0  0  0  0  0  0  0  0  0
    1.4381   -0.6851   -0.5511 C   0  0  0  0  0  0  0  0  0  0  0  0
    0.9599   -0.9410    2.1993 Br  0  0  0  0  0  0  0  0  0  0  0  0
   -0.7498    0.3413   -1.8517 H   0  0  0  0  0  0  0  0  0  0  0  0
   -1.0020    1.8484   -0.9233 H   0  0  0  0  0  0  0  0  0  0  0  0
   -2.3209    0.6165   -1.0799 H   0  0  0  0  0  0  0  0  0  0  0  0
   -1.3018    0.5045    1.1533 H   0  0  0  0  0  0  0  0  0  0  0  0
   -2.4372   -1.3700    0.5098 H   0  0  0  0  0  0  0  0  0  0  0  0
   -1.3321   -1.7711   -0.8680 H   0  0  0  0  0  0  0  0  0  0  0  0
   -0.8125   -2.0007    0.8898 H   0  0  0  0  0  0  0  0  0  0  0  0
    0.8659    1.7517    1.6861 H   0  0  0  0  0  0  0  0  0  0  0  0
    2.2945    1.3330    0.6063 H   0  0  0  0  0  0  0  0  0  0  0  0
    0.8317    2.0912   -0.0643 H   0  0  0  0  0  0  0  0  0  0  0  0
    1.2193   -0.2722   -1.5493 H   0  0  0  0  0  0  0  0  0  0  0  0
    2.5239   -0.4367   -0.3613 H   0  0  0  0  0  0  0  0  0  0  0  0
    1.3899   -1.7963   -0.5133 H   0  0  0  0  0  0  0  0  0  0  0  0
  1  2  1  0
  2  3  1  0
  2  4  1  0
  4  5  1  0
  4  6  1  0
  4  7  1  0
  1  8  1  0
  1  9  1  0
  1 10  1  0
  2 11  1  0
  3 12  1  0
  3 13  1  0
  3 14  1  0
  5 15  1  0
  5 16  1  0
  5 17  1  0
  6 18  1  0
  6 19  1  0
  6 20  1  0
A    1
-0.353339
A    2
0.052101
A    3
-0.357050
A    4
0.292174
A    5
-0.407951
A    6
-0.403710
A    7
-0.276787
A    8
0.105333
A    9
0.105740
A   10
0.113853
A   11
0.058861
A   12
0.109082
A   13
0.106748
A   14
0.099743
A   15
0.124263
A   16
0.126028
A   17
0.125344
A   18
0.125451
A   19
0.129564
A   20
0.124552
M  END
