
     RDKit          3D

 20 19  0  0  0  0  0  0  0  0999 V2000
   -2.1917   -0.5543    0.0199 C   0  0  0  0  0  0  0  0  0  0  0  0
   -1.5442    0.7438   -0.2636 C   0  0  0  0  0  0  0  0  0  0  0  0
   -0.1654    0.9765    0.2101 C   0  0  0  0  0  0  0  0  0  0  0  0
    0.9159    0.1140   -0.2910 C   0  0  0  0  0  0  0  0  0  0  0  0
    0.7297   -1.3355    0.0539 C   0  0  0  0  0  0  0  0  0  0  0  0
    2.2685    0.4972    0.3419 C   0  0  0  0  0  0  0  0  0  0  0  0
    1.1663    0.2710   -2.2127 Br  0  0  0  0  0  0  0  0  0  0  0  0
   -2.2455   -1.1632   -0.9320 H   0  0  0  0  0  0  0  0  0  0  0  0
   -1.8168   -1.1180    0.8716 H   0  0  0  0  0  0  0  0  0  0  0  0
   -3.3011   -0.4079    0.2748 H   0  0  0  0  0  0  0  0  0  0  0  0
   -1.5299    0.8802   -1.3850 H   0  0  0  0  0  0  0  0  0  0  0  0
   -2.2575    1.5508    0.0870 H   0  0  0  0  0  0  0  0  0  0  0  0
   -0.0824    1.0051    1.3293 H   0  0  0  0  0  0  0  0  0  0  0  0
    0.1088    2.0451   -0.0769 H   0  0  0  0  0  0  0  0  0  0  0  0
    0.4852   -1.4211    1.1414 H   0  0  0  0  0  0  0  0  0  0  0  0
    1.7294   -1.8554   -0.0877 H   0  0  0  0  0  0  0  0  0  0  0  0
   -0.0402   -1.8148   -0.5422 H   0  0  0  0  0  0  0  0  0  0  0  0
    2.2640    0.1713    1.4109 H   0  0  0  0  0  0  0  0  0  0  0  0
    3.0178   -0.1435   -0.1651 H   0  0  0  0  0  0  0  0  0  0  0  0
    2.4890    1.5588    0.2156 H   0  0  0  0  0  0  0  0  0  0  0  0
  1  2  1  0
  2  3  1  0
  3  4  1  0
  4  5  1  0
  4  6  1  0
  4  7  1  0
  1  8  1  0
  1  9  1  0
  1 10  1  0
  2 11  1  0
  2 12  1  0
  3 13  1  0
  3 14  1  0
  5 15  1  0
  5 16  1  0
  5 17  1  0
  6 18  1  0
  6 19  1  0
  6 20  1  0
A    1
-0.326060
A    2
-0.066676
A    3
-0.202056
A    4
0.322762
A    5
-0.406903
A    6
-0.411042
A    7
-0.270184
A    8
0.096745
A    9
0.097755
A   10
0.098699
A   11
0.060223
A   12
0.068122
A   13
0.094706
A   14
0.085771
A   15
0.128427
A   16
0.127604
A   17
0.126447
A   18
0.126627
A   19
0.124097
A   20
0.124937
M  END
