
     RDKit          3D

 20 19  0  0  0  0  0  0  0  0999 V2000
   -2.1641   -0.4204   -0.3811 C   0  0  0  0  0  0  0  0  0  0  0  0
   -1.3293    0.8078   -0.3528 C   0  0  0  0  0  0  0  0  0  0  0  0
    0.0955    0.5780    0.0710 C   0  0  0  0  0  0  0  0  0  0  0  0
    0.1044   -0.0084    1.4760 C   0  0  0  0  0  0  0  0  0  0  0  0
    0.8621   -0.3298   -0.8170 C   0  0  0  0  0  0  0  0  0  0  0  0
    2.2663   -0.4613   -0.2641 C   0  0  0  0  0  0  0  0  0  0  0  0
    3.1206    1.2773   -0.2066 Br  0  0  0  0  0  0  0  0  0  0  0  0
   -3.0109   -0.2973    0.3408 H   0  0  0  0  0  0  0  0  0  0  0  0
   -1.6159   -1.3466   -0.1051 H   0  0  0  0  0  0  0  0  0  0  0  0
   -2.6633   -0.6007   -1.3732 H   0  0  0  0  0  0  0  0  0  0  0  0
   -1.3233    1.2349   -1.3952 H   0  0  0  0  0  0  0  0  0  0  0  0
   -1.7583    1.6084    0.2853 H   0  0  0  0  0  0  0  0  0  0  0  0
    0.6155    1.5562    0.1269 H   0  0  0  0  0  0  0  0  0  0  0  0
    1.0673    0.2265    1.9744 H   0  0  0  0  0  0  0  0  0  0  0  0
   -0.6763    0.5672    2.0424 H   0  0  0  0  0  0  0  0  0  0  0  0
   -0.1103   -1.1002    1.4676 H   0  0  0  0  0  0  0  0  0  0  0  0
    0.4108   -1.3396   -0.8582 H   0  0  0  0  0  0  0  0  0  0  0  0
    0.9743    0.0779   -1.8492 H   0  0  0  0  0  0  0  0  0  0  0  0
    2.8494   -1.1580   -0.9346 H   0  0  0  0  0  0  0  0  0  0  0  0
    2.2854   -0.8719    0.7529 H   0  0  0  0  0  0  0  0  0  0  0  0
  1  2  1  0
  2  3  1  0
  3  4  1  0
  3  5  1  0
  5  6  1  0
  6  7  1  0
  1  8  1  0
  1  9  1  0
  1 10  1  0
  2 11  1  0
  2 12  1  0
  3 13  1  0
  4 14  1  0
  4 15  1  0
  4 16  1  0
  5 17  1  0
  5 18  1  0
  6 19  1  0
  6 20  1  0
A    1
-0.322947
A    2
-0.109087
A    3
0.072793
A    4
-0.365105
A    5
-0.158351
A    6
-0.065616
A    7
-0.217012
A    8
0.097315
A    9
0.096380
A   10
0.099702
A   11
0.062437
A   12
0.063584
A   13
0.039103
A   14
0.102241
A   15
0.106949
A   16
0.101755
A   17
0.088538
A   18
0.081105
A   19
0.112677
A   20
0.113539
M  END
