
     RDKit          3D

 14 13  0  0  0  0  0  0  0  0999 V2000
    1.6630    1.2121    1.4420 Br  0  0  0  0  0  0  0  0  0  0  0  0
    1.4964    0.0901   -0.1074 C   0  0  0  0  0  0  0  0  0  0  0  0
    0.0663   -0.2780   -0.3969 C   0  0  0  0  0  0  0  0  0  0  0  0
   -0.5612   -1.0294    0.7580 C   0  0  0  0  0  0  0  0  0  0  0  0
   -2.3981   -1.4964    0.3738 Br  0  0  0  0  0  0  0  0  0  0  0  0
   -0.7704    0.9427   -0.7174 C   0  0  0  0  0  0  0  0  0  0  0  0
   -0.7747    2.1808    0.7582 Br  0  0  0  0  0  0  0  0  0  0  0  0
    1.9423    0.5819   -0.9748 H   0  0  0  0  0  0  0  0  0  0  0  0
    2.0353   -0.8861    0.0717 H   0  0  0  0  0  0  0  0  0  0  0  0
    0.0628   -0.9468   -1.2814 H   0  0  0  0  0  0  0  0  0  0  0  0
   -0.4992   -0.4517    1.7030 H   0  0  0  0  0  0  0  0  0  0  0  0
   -0.0178   -1.9987    0.8972 H   0  0  0  0  0  0  0  0  0  0  0  0
   -1.8209    0.6393   -0.8933 H   0  0  0  0  0  0  0  0  0  0  0  0
   -0.4239    1.4401   -1.6328 H   0  0  0  0  0  0  0  0  0  0  0  0
  1  2  1  0
  2  3  1  0
  3  4  1  0
  4  5  1  0
  3  6  1  0
  6  7  1  0
  2  8  1  0
  2  9  1  0
  3 10  1  0
  4 11  1  0
  4 12  1  0
  6 13  1  0
  6 14  1  0
A    1
-0.183506
A    2
-0.120448
A    3
0.041725
A    4
-0.120438
A    5
-0.184433
A    6
-0.117761
A    7
-0.182452
A    8
0.136015
A    9
0.131108
A   10
0.111779
A   11
0.111507
A   12
0.132047
A   13
0.111894
A   14
0.132964
M  END
