
     RDKit          3D

 17 16  0  0  0  0  0  0  0  0999 V2000
    1.8344   -0.8945    0.0004 C   0  0  0  0  0  0  0  0  0  0  0  0
    0.9588    0.3128    0.0069 C   0  0  0  0  0  0  0  0  0  0  0  0
    1.5924    1.4659   -1.4379 Br  0  0  0  0  0  0  0  0  0  0  0  0
   -0.4872    0.0404   -0.2617 C   0  0  0  0  0  0  0  0  0  0  0  0
   -1.1428   -0.8715    0.7100 C   0  0  0  0  0  0  0  0  0  0  0  0
   -1.2156    1.3806   -0.2135 C   0  0  0  0  0  0  0  0  0  0  0  0
   -0.6910   -0.6714   -2.0462 Br  0  0  0  0  0  0  0  0  0  0  0  0
    1.8107   -1.4738    0.9466 H   0  0  0  0  0  0  0  0  0  0  0  0
    2.8961   -0.5185   -0.0826 H   0  0  0  0  0  0  0  0  0  0  0  0
    1.6798   -1.5351   -0.8745 H   0  0  0  0  0  0  0  0  0  0  0  0
    1.1208    0.8836    0.9418 H   0  0  0  0  0  0  0  0  0  0  0  0
   -0.4732   -1.5866    1.2065 H   0  0  0  0  0  0  0  0  0  0  0  0
   -1.6679   -0.2903    1.5148 H   0  0  0  0  0  0  0  0  0  0  0  0
   -1.9664   -1.4507    0.2094 H   0  0  0  0  0  0  0  0  0  0  0  0
   -1.5488    1.7042   -1.2233 H   0  0  0  0  0  0  0  0  0  0  0  0
   -2.1325    1.3189    0.4202 H   0  0  0  0  0  0  0  0  0  0  0  0
   -0.5676    2.1860    0.1829 H   0  0  0  0  0  0  0  0  0  0  0  0
  1  2  1  0
  2  3  1  0
  2  4  1  0
  4  5  1  0
  4  6  1  0
  4  7  1  0
  1  8  1  0
  1  9  1  0
  1 10  1  0
  2 11  1  0
  5 12  1  0
  5 13  1  0
  5 14  1  0
  6 15  1  0
  6 16  1  0
  6 17  1  0
A    1
-0.363108
A    2
0.075221
A    3
-0.212237
A    4
0.271079
A    5
-0.399129
A    6
-0.409132
A    7
-0.227223
A    8
0.125447
A    9
0.124400
A   10
0.114739
A   11
0.125491
A   12
0.127295
A   13
0.131369
A   14
0.132625
A   15
0.121640
A   16
0.129978
A   17
0.131546
M  END
