
     RDKit          3D

 17 16  0  0  0  0  0  0  0  0999 V2000
   -1.2523    2.1355    0.3804 Br  0  0  0  0  0  0  0  0  0  0  0  0
   -2.0418    0.4087    0.2563 C   0  0  0  0  0  0  0  0  0  0  0  0
   -1.0618   -0.7140    0.3440 C   0  0  0  0  0  0  0  0  0  0  0  0
   -0.0082   -0.7849   -0.6843 C   0  0  0  0  0  0  0  0  0  0  0  0
    1.0603   -2.3830   -0.2632 Br  0  0  0  0  0  0  0  0  0  0  0  0
    0.9716    0.3410   -0.7505 C   0  0  0  0  0  0  0  0  0  0  0  0
    1.7371    0.4850    0.5396 C   0  0  0  0  0  0  0  0  0  0  0  0
    2.9951    1.9331    0.4702 Br  0  0  0  0  0  0  0  0  0  0  0  0
   -2.7997    0.2125    1.0675 H   0  0  0  0  0  0  0  0  0  0  0  0
   -2.6342    0.3584   -0.7065 H   0  0  0  0  0  0  0  0  0  0  0  0
   -1.6787   -1.6590    0.2364 H   0  0  0  0  0  0  0  0  0  0  0  0
   -0.6993   -0.7600    1.3899 H   0  0  0  0  0  0  0  0  0  0  0  0
   -0.4654   -0.9097   -1.6746 H   0  0  0  0  0  0  0  0  0  0  0  0
    1.7623   -0.0213   -1.4886 H   0  0  0  0  0  0  0  0  0  0  0  0
    0.6130    1.2718   -1.1870 H   0  0  0  0  0  0  0  0  0  0  0  0
    1.1417    0.5422    1.4432 H   0  0  0  0  0  0  0  0  0  0  0  0
    2.3604   -0.4561    0.6272 H   0  0  0  0  0  0  0  0  0  0  0  0
  1  2  1  0
  2  3  1  0
  3  4  1  0
  4  5  1  0
  4  6  1  0
  6  7  1  0
  7  8  1  0
  2  9  1  0
  2 10  1  0
  3 11  1  0
  3 12  1  0
  4 13  1  0
  6 14  1  0
  6 15  1  0
  7 16  1  0
  7 17  1  0
A    1
-0.188047
A    2
-0.065955
A    3
-0.173462
A    4
0.114270
A    5
-0.233025
A    6
-0.174997
A    7
-0.075049
A    8
-0.195864
A    9
0.123810
A   10
0.127949
A   11
0.100617
A   12
0.109717
A   13
0.111982
A   14
0.098551
A   15
0.096484
A   16
0.109377
A   17
0.113643
M  END
