
     RDKit          3D

 20 19  0  0  0  0  0  0  0  0999 V2000
   -2.7285    0.5116    0.3766 C   0  0  0  0  0  0  0  0  0  0  0  0
   -1.4816   -0.3434    0.1334 C   0  0  0  0  0  0  0  0  0  0  0  0
   -0.2863    0.4218    0.6395 C   0  0  0  0  0  0  0  0  0  0  0  0
    0.9449   -0.3846    0.4477 C   0  0  0  0  0  0  0  0  0  0  0  0
    2.1988    0.3040    0.9318 C   0  0  0  0  0  0  0  0  0  0  0  0
    2.4164    1.9606   -0.0491 Br  0  0  0  0  0  0  0  0  0  0  0  0
    1.1424   -0.7038   -1.0024 C   0  0  0  0  0  0  0  0  0  0  0  0
    2.7908   -1.7488   -1.1763 Br  0  0  0  0  0  0  0  0  0  0  0  0
   -3.6008   -0.1388    0.2158 H   0  0  0  0  0  0  0  0  0  0  0  0
   -2.6878    0.8915    1.4368 H   0  0  0  0  0  0  0  0  0  0  0  0
   -2.6733    1.3368   -0.3517 H   0  0  0  0  0  0  0  0  0  0  0  0
   -1.5593   -1.3424    0.5595 H   0  0  0  0  0  0  0  0  0  0  0  0
   -1.3938   -0.4122   -0.9746 H   0  0  0  0  0  0  0  0  0  0  0  0
   -0.2361    1.3759    0.0607 H   0  0  0  0  0  0  0  0  0  0  0  0
   -0.4943    0.6759    1.7016 H   0  0  0  0  0  0  0  0  0  0  0  0
    0.8700   -1.3757    0.9765 H   0  0  0  0  0  0  0  0  0  0  0  0
    2.1961    0.4547    2.0147 H   0  0  0  0  0  0  0  0  0  0  0  0
    3.0579   -0.3473    0.6364 H   0  0  0  0  0  0  0  0  0  0  0  0
    1.2349    0.2036   -1.6097 H   0  0  0  0  0  0  0  0  0  0  0  0
    0.2898   -1.3394   -1.3527 H   0  0  0  0  0  0  0  0  0  0  0  0
  1  2  1  0
  2  3  1  0
  3  4  1  0
  4  5  1  0
  5  6  1  0
  4  7  1  0
  7  8  1  0
  1  9  1  0
  1 10  1  0
  1 11  1  0
  2 12  1  0
  2 13  1  0
  3 14  1  0
  3 15  1  0
  4 16  1  0
  5 17  1  0
  5 18  1  0
  7 19  1  0
  7 20  1  0
A    1
-0.325037
A    2
-0.075875
A    3
-0.161994
A    4
0.032921
A    5
-0.114815
A    6
-0.185254
A    7
-0.114997
A    8
-0.195254
A    9
0.097258
A   10
0.100167
A   11
0.100691
A   12
0.065534
A   13
0.068503
A   14
0.076091
A   15
0.081417
A   16
0.079599
A   17
0.124313
A   18
0.107481
A   19
0.116098
A   20
0.123153
M  END
