
     RDKit          3D

 14 13  0  0  0  0  0  0  0  0999 V2000
   -1.4437   -0.1296   -0.1139 C   0  0  0  0  0  0  0  0  0  0  0  0
   -0.0348   -0.0380    0.4076 C   0  0  0  0  0  0  0  0  0  0  0  0
   -0.0370   -0.2078    2.3345 Br  0  0  0  0  0  0  0  0  0  0  0  0
    0.7556   -1.1724   -0.2019 C   0  0  0  0  0  0  0  0  0  0  0  0
    0.8105   -1.1145   -2.1044 Br  0  0  0  0  0  0  0  0  0  0  0  0
    0.5151    1.3062    0.0626 C   0  0  0  0  0  0  0  0  0  0  0  0
    2.3357    1.5228    0.6952 Br  0  0  0  0  0  0  0  0  0  0  0  0
   -1.9954   -0.9842    0.2924 H   0  0  0  0  0  0  0  0  0  0  0  0
   -1.3768   -0.3025   -1.2257 H   0  0  0  0  0  0  0  0  0  0  0  0
   -2.0225    0.7895    0.0298 H   0  0  0  0  0  0  0  0  0  0  0  0
    1.8069   -1.0969    0.1938 H   0  0  0  0  0  0  0  0  0  0  0  0
    0.3573   -2.1520    0.1219 H   0  0  0  0  0  0  0  0  0  0  0  0
    0.4557    1.5114   -1.0435 H   0  0  0  0  0  0  0  0  0  0  0  0
   -0.1268    2.0680    0.5514 H   0  0  0  0  0  0  0  0  0  0  0  0
  1  2  1  0
  2  3  1  0
  2  4  1  0
  4  5  1  0
  2  6  1  0
  6  7  1  0
  1  8  1  0
  1  9  1  0
  1 10  1  0
  4 11  1  0
  4 12  1  0
  6 13  1  0
  6 14  1  0
A    1
-0.404236
A    2
0.277171
A    3
-0.203496
A    4
-0.177886
A    5
-0.153385
A    6
-0.174641
A    7
-0.164283
A    8
0.138295
A    9
0.130539
A   10
0.135173
A   11
0.136120
A   12
0.155920
A   13
0.145319
A   14
0.159391
M  END
