
     RDKit          3D

 11 10  0  0  0  0  0  0  0  0999 V2000
   -1.2422   -0.0179    0.3658 C   0  0  0  0  0  0  0  0  0  0  0  0
   -0.0081   -0.6623   -0.2006 C   0  0  0  0  0  0  0  0  0  0  0  0
    1.1087    0.3882   -0.0914 C   0  0  0  0  0  0  0  0  0  0  0  0
    2.7524   -0.3069   -0.7837 Br  0  0  0  0  0  0  0  0  0  0  0  0
    0.5694    2.0092   -1.0034 Br  0  0  0  0  0  0  0  0  0  0  0  0
   -1.2029   -0.1409    1.4725 H   0  0  0  0  0  0  0  0  0  0  0  0
   -1.2029    1.0683    0.1405 H   0  0  0  0  0  0  0  0  0  0  0  0
   -2.1800   -0.4519   -0.0240 H   0  0  0  0  0  0  0  0  0  0  0  0
    0.3056   -1.5470    0.3826 H   0  0  0  0  0  0  0  0  0  0  0  0
   -0.1586   -0.9790   -1.2301 H   0  0  0  0  0  0  0  0  0  0  0  0
    1.2586    0.6403    0.9718 H   0  0  0  0  0  0  0  0  0  0  0  0
  1  2  1  0
  2  3  1  0
  3  4  1  0
  3  5  1  0
  1  6  1  0
  1  7  1  0
  1  8  1  0
  2  9  1  0
  2 10  1  0
  3 11  1  0
A    1
-0.317448
A    2
-0.117811
A    3
0.113697
A    4
-0.181644
A    5
-0.164618
A    6
0.108175
A    7
0.099794
A    8
0.113109
A    9
0.098113
A   10
0.093816
A   11
0.154820
M  END
