
     RDKit          3D

 20 19  0  0  0  0  0  0  0  0999 V2000
    1.1090   -0.0520    1.3443 C   0  0  0  0  0  0  0  0  0  0  0  0
    0.7482   -0.4919   -0.0440 C   0  0  0  0  0  0  0  0  0  0  0  0
    1.7014    0.1476   -1.0045 C   0  0  0  0  0  0  0  0  0  0  0  0
   -0.6881   -0.1961   -0.3965 C   0  0  0  0  0  0  0  0  0  0  0  0
   -1.6233   -0.8931    0.5381 C   0  0  0  0  0  0  0  0  0  0  0  0
   -0.9994   -0.9131   -2.1768 Br  0  0  0  0  0  0  0  0  0  0  0  0
   -0.9990    1.2668   -0.4232 C   0  0  0  0  0  0  0  0  0  0  0  0
   -2.8834    1.4452   -0.8931 Br  0  0  0  0  0  0  0  0  0  0  0  0
    0.3189   -0.2057    2.0819 H   0  0  0  0  0  0  0  0  0  0  0  0
    1.9822   -0.6934    1.6632 H   0  0  0  0  0  0  0  0  0  0  0  0
    1.4171    1.0133    1.3982 H   0  0  0  0  0  0  0  0  0  0  0  0
    0.8741   -1.5976   -0.1294 H   0  0  0  0  0  0  0  0  0  0  0  0
    1.3496    0.0892   -2.0361 H   0  0  0  0  0  0  0  0  0  0  0  0
    1.9415    1.1996   -0.7349 H   0  0  0  0  0  0  0  0  0  0  0  0
    2.6733   -0.4093   -0.9539 H   0  0  0  0  0  0  0  0  0  0  0  0
   -2.3065   -0.1622    1.0479 H   0  0  0  0  0  0  0  0  0  0  0  0
   -1.0897   -1.4837    1.3278 H   0  0  0  0  0  0  0  0  0  0  0  0
   -2.2939   -1.6248    0.0398 H   0  0  0  0  0  0  0  0  0  0  0  0
   -0.7976    1.7485    0.5522 H   0  0  0  0  0  0  0  0  0  0  0  0
   -0.4344    1.8126   -1.2011 H   0  0  0  0  0  0  0  0  0  0  0  0
  1  2  1  0
  2  3  1  0
  2  4  1  0
  4  5  1  0
  4  6  1  0
  4  7  1  0
  7  8  1  0
  1  9  1  0
  1 10  1  0
  1 11  1  0
  2 12  1  0
  3 13  1  0
  3 14  1  0
  3 15  1  0
  5 16  1  0
  5 17  1  0
  5 18  1  0
  7 19  1  0
  7 20  1  0
A    1
-0.356158
A    2
0.061939
A    3
-0.363985
A    4
0.235225
A    5
-0.406602
A    6
-0.240530
A    7
-0.162039
A    8
-0.168308
A    9
0.106961
A   10
0.114578
A   11
0.111558
A   12
0.064990
A   13
0.102951
A   14
0.112191
A   15
0.111973
A   16
0.130900
A   17
0.129862
A   18
0.122910
A   19
0.147630
A   20
0.143956
M  END
