
     RDKit          3D

 14 13  0  0  0  0  0  0  0  0999 V2000
    1.8606    0.2690   -0.2626 C   0  0  0  0  0  0  0  0  0  0  0  0
    0.5140   -0.4294   -0.3115 C   0  0  0  0  0  0  0  0  0  0  0  0
   -0.5764    0.3586    0.3439 C   0  0  0  0  0  0  0  0  0  0  0  0
   -1.8534   -0.4026    0.2466 C   0  0  0  0  0  0  0  0  0  0  0  0
   -0.0824    0.7999    2.1518 Br  0  0  0  0  0  0  0  0  0  0  0  0
   -0.7883    2.0111   -0.6424 Br  0  0  0  0  0  0  0  0  0  0  0  0
    2.5209   -0.3063   -0.9681 H   0  0  0  0  0  0  0  0  0  0  0  0
    1.7318    1.3149   -0.5994 H   0  0  0  0  0  0  0  0  0  0  0  0
    2.3370    0.1785    0.7321 H   0  0  0  0  0  0  0  0  0  0  0  0
    0.6745   -1.4188    0.1773 H   0  0  0  0  0  0  0  0  0  0  0  0
    0.2825   -0.6244   -1.3712 H   0  0  0  0  0  0  0  0  0  0  0  0
   -2.0867   -1.0111    1.1303 H   0  0  0  0  0  0  0  0  0  0  0  0
   -2.7308    0.2804    0.0707 H   0  0  0  0  0  0  0  0  0  0  0  0
   -1.8033   -1.0198   -0.6974 H   0  0  0  0  0  0  0  0  0  0  0  0
  1  2  1  0
  2  3  1  0
  3  4  1  0
  3  5  1  0
  3  6  1  0
  1  7  1  0
  1  8  1  0
  1  9  1  0
  2 10  1  0
  2 11  1  0
  4 12  1  0
  4 13  1  0
  4 14  1  0
A    1
-0.316885
A    2
-0.154686
A    3
0.287977
A    4
-0.423061
A    5
-0.171702
A    6
-0.178065
A    7
0.111430
A    8
0.101704
A    9
0.101416
A   10
0.107528
A   11
0.107497
A   12
0.141860
A   13
0.140848
A   14
0.144141
M  END
